HelpScribble project file.
12
_vpuneq O. dvafgba-1N5895P8
0
1
MODFLOW GUI Tutorial



TRUE

D:\PROGRA~1\Jgsoft\HELPSC~1\MFTUTO~1,C:\PROGRA~1\JGsoft\HELPSC~1\MFTUTO~1
1
BrowseButtons()
0
TRUE

FALSE
TRUE
16777215
0
16711680
8388736
255
FALSE
FALSE
FALSE
149
10
Scribble10
Contents



general:000010
Writing



FALSE
21
{\rtf1\ansi\ansicpg1252\deff0\deflang1033{\fonttbl{\f0\fswiss Arial;}{\f1\froman Times New Roman;}{\f2\froman\fcharset0 Times New Roman;}{\f3\fnil\fcharset2 Symbol;}}
{\colortbl ;\red0\green0\blue255;\red0\green128\blue0;\red128\green0\blue0;}
\viewkind4\uc1\pard\cf1\b\f0\fs32 Contents\cf0\b0\fs20 
\par \f1\fs24 
\par \pard{\pntext\f3\'B7\tab}{\*\pn\pnlvlblt\pnf3\pnindent200{\pntxtb\'B7}}\fi-200\li200\cf2\strike Basic operations\cf3\strike0\{linkID=100\}\cf0 
\par {\pntext\f3\'B7\tab}\cf2\strike Some useful utility PIEs\cf3\strike0\{linkID=300\}\cf0 
\par {\pntext\f3\'B7\tab}\cf2\strike MODFLOW/MOC3D\f2 /GWT\f1  problem: Rocky Mountain Arsenal (RMA)\cf3\strike0\{linkID=1000\}\cf0 
\par {\pntext\f3\'B7\tab}\cf2\strike RMA2: Using the Stream, Flow-and-Head Boundary, Horizontal Flow Barrier packages, plus MODPATH, and Zonebudget\cf3\strike0\{linkID=2000\}\cf0 
\par {\pntext\f3\'B7\tab}\cf2\strike MODFLOW-2000, Test Case 1\cf3\strike0\{linkID=3000\}\cf0 
\par {\pntext\f3\'B7\tab}\cf2\strike MODFLOW-2000, Test Case 2\cf3\strike0\{linkID=4000\}\cf0 
\par {\pntext\f3\'B7\tab}\cf2\strike Transient Leakage package\cf3\strike0\{linkID=5000\}\cf0 
\par {\pntext\f3\'B7\tab}\cf2\strike Interbed Storage package\cf3\strike0\{linkID=6000\}\cf0 
\par {\pntext\f3\'B7\tab}\cf2\strike Reservoir package\cf3\strike0\{linkID=7000\}\cf0 
\par {\pntext\f3\'B7\tab}\cf2\strike Lake package, Lake-aquifer equilibrium\cf3\strike0\{linkID=8000\}\cf0 
\par {\pntext\f3\'B7\tab}\cf2\strike Lake package, Drying and Rewetting\cf3\strike0\{linkID=8200\}\cf0 
\par {\pntext\f3\'B7\tab}\cf2\strike Lake package, Sublake separation and coalescence\cf3\strike0\{linkID=9000\}\cf0 
\par {\pntext\f3\'B7\tab}\cf2\strike Lake package, Solute transport in lakes\cf3\strike0\{linkID=10000\}\cf0 
\par {\pntext\f3\'B7\tab}\cf2\strike One Dimensional MOC3D/GWT problem\cf3\strike0\{linkID=11000\}\cf0 
\par {\pntext\f3\'B7\tab}\cf2\strike References\cf3\strike0\{linkID=15000\}\cf0 
\par {\pntext\f3\'B7\tab}\pard\fi-160\li160\tx160 
\par }
100
Scribble100
Basic Argus ONE Operations



general:000020
Writing



FALSE
28
{\rtf1\ansi\ansicpg1252\deff0\deflang1033{\fonttbl{\f0\fswiss Arial;}{\f1\froman Times New Roman;}{\f2\froman\fcharset0 Times New Roman;}}
{\colortbl ;\red0\green0\blue255;\red0\green128\blue0;\red128\green0\blue0;}
\viewkind4\uc1\pard\cf1\b\f0\fs32 Basic operations\cf0\b0\f1\fs24 
\par 
\par This list of topics provides a brief overview of some basic Argus ONE operations. It is not a substitute for reading the Argus ONE user's manual. 
\par 
\par Argus ONE Operations
\par 
\par \cf2\strike How to access the Argus ONE Help\cf3\strike0\{linkID=105\}\cf0 
\par \cf2\strike How to display the layers\f2 '\f1  floater\cf3\strike0\{linkID=110\}\cf2\strike 
\par How to make a layer the active layer\cf3\strike0\{linkID=120\}
\par \cf2\strike How to create a grid\cf3\strike0\{linkID=130\}\cf2\strike 
\par How to select the point, open contour, and closed contour tools in Argus ONE\cf3\strike0\{linkID=140\}\cf0 
\par \cf2\strike How to open the Layers dialog box\cf3\strike0\{linkID=150\}\cf0 
\par \cf2\strike How to add new layers\cf3\strike0\{linkID=160\}\cf0 
\par \cf2\strike How to add new Argus ONE parameters\cf3\strike0\{linkID=170\}\cf0 
\par \cf2\strike How to open the expression editor\cf3\strike0\{linkID=180\}\cf0 
\par \cf2\strike How to edit expressions\cf3\strike0\{linkID=190\}
\par \cf2\strike How to change the way layers are evaluated\cf3\strike0\{linkID=200\}
\par \cf0 
\par MODFLOW Operations
\par 
\par \cf2\strike How to visualize input to MODFLOW\cf3\strike0\{linkID=220\}
\par \cf2\strike How to visualize output from MODFLOW\cf3\strike0\{linkID=230\}
\par \cf2\strike How to access the MODFLOW GUI Help\cf3\strike0\{linkID=240\}\cf0 
\par 
\par Next: \cf2\strike How to access the Argus ONE Help\cf3\strike0\{linkID=105\}\cf0 
\par }
105
Scribble105
How to access the Argus ONE Help



general:000030
Writing



FALSE
8
{\rtf1\ansi\ansicpg1252\deff0\deflang1033{\fonttbl{\f0\fswiss Arial;}{\f1\froman Times New Roman;}{\f2\froman\fcharset0 Times New Roman;}}
{\colortbl ;\red0\green0\blue255;\red0\green128\blue0;\red128\green0\blue0;}
\viewkind4\uc1\pard\cf1\b\f0\fs32 How to access the Argus ONE Help\cf0\b0\f1\fs24 
\par 
\par Select the \b Help\b0  menu item from the main Argus ONE window. The complete documentation for Argus ONE is available in this fashion.
\par 
\par Next: \cf2\strike How to display the layers\f2 '\f1  floater\cf3\strike0\{linkID=110\}\cf0 
\par }
110
Scribble110
How to display the layers' floater



general:000040
Writing



FALSE
10
{\rtf1\ansi\ansicpg1252\deff0\deflang1033{\fonttbl{\f0\fswiss Arial;}{\f1\froman Times New Roman;}{\f2\froman\fcharset0 Times New Roman;}}
{\colortbl ;\red0\green0\blue255;\red128\green0\blue0;\red0\green128\blue0;}
\viewkind4\uc1\pard\cf1\b\f0\fs32 How to display the layers' floater\cf0\b0\f1\fs24 
\par 
\par If the Layers\f2 '\f1  floater is not visible, select \b View|Show Layers Window\b0  from the menu or click on the button whose tooltip is "\b Layers\b0 ".
\par 
\par \cf2\{bmc ShowLayers.BMP\}
\par 
\par \cf0 Next: \cf3\strike How to make a layer the active layer\cf2\strike0\{linkID=120\}\cf0 
\par }
120
Scribble120
How to make a layer the active layer



general:000050
Writing



FALSE
12
{\rtf1\ansi\ansicpg1252\deff0\deflang1033{\fonttbl{\f0\fswiss Arial;}{\f1\froman Times New Roman;}{\f2\froman\fcharset0 Times New Roman;}}
{\colortbl ;\red0\green0\blue255;\red0\green128\blue0;\red128\green0\blue0;}
\viewkind4\uc1\pard\cf1\b\f0\fs32 How to make a layer the active layer\cf0\b0\f1\fs24 
\par 
\par The active layer is the layer whose contours or other objects are currently being edited. The easiest way to activate a layer is to use the \cf2\strike Layers\f2 '\f1  floater\cf3\strike0\{linkID=110\}\cf0 . In the Layers\f2 '\f1  floater, click to the left of the eye icon of the layer you wish to activate. A check mark will appear there indicating that you have activated that layer.
\par 
\par \f2 (If you click the eye icon itself, you will toggle a layer between visible and invisible.)\f1 
\par 
\par \cf3\{bmc ActiveLayer.BMP\}
\par 
\par \cf0 Next: \cf2\strike How to create a grid\cf3\strike0\{linkID=130\}\cf0 
\par }
130
Scribble130
How to create a grid



general:000060
Writing



FALSE
16
{\rtf1\ansi\deff0\deflang1033{\fonttbl{\f0\fswiss Arial;}{\f1\froman Times New Roman;}}
{\colortbl ;\red0\green0\blue255;\red0\green128\blue0;\red128\green0\blue0;}
\viewkind4\uc1\pard\cf1\b\f0\fs32 How to create a grid\cf0\b0\f1\fs24 
\par 
\par Three layers are involved in the creation of the grid \b MODFLOW Domain Outline\b0 , \b MODFLOW Grid Refinement\b0 , and \b MODFLOW FD Grid\b0 .
\par 
\par \cf2\strike Activate\cf3\strike0\{linkID=120\}\cf0  the \b MODFLOW Domain Outline\b0  layer draw a closed contour around the area to be encompassed by any part of the model. Assign the contour a value equal to the length of the largest grid cell you want to appear in the model. 
\par 
\par Next, on the \b MODFLOW Grid Refinement\b0  layer, draw contours to show where the grid should be smaller in size than the size specified on the \b MODFLOW Domain Outline\b0  layer. For a uniform grid, you don't need any contours on the \b MODFLOW Grid Refinement\b0  layer.
\par 
\par Finally, on the \b MODFLOW FD Grid\b0  layer click with the "magic wand" somewhere inside the contour on the \b MODFLOW Domain Outline\b0  layer.
\par 
\par \cf3\{bmc MagicWand.BMP\}\cf0  
\par 
\par Next: \cf2\strike How to select the point, open contour, and closed contour tools in Argus ONE\cf3\strike0\{linkID=140\}\cf0 
\par }
140
Scribble140
How to select the point, open contour, and closed contour tools in Argus ONE



general:000070
Writing



FALSE
10
{\rtf1\ansi\deff0\deflang1033{\fonttbl{\f0\fswiss Arial;}{\f1\froman Times New Roman;}}
{\colortbl ;\red0\green0\blue255;\red128\green0\blue0;\red0\green128\blue0;}
\viewkind4\uc1\pard\cf1\b\f0\fs32 How to select the point, open contour, and closed contour tools in Argus ONE\cf0\b0\f1\fs24 
\par 
\par Click on the contour tool button until a popup menu appears. The top selection is for closed contours. The middle selection is for open contours. The bottom selection is for point contours.
\par \cf2 
\par \{bmc contourtool.bmp\}
\par 
\par \cf0 Next: \cf3\strike How to open the Layers dialog box\cf2\strike0\{linkID=150\}\cf0 
\par }
150
Scribble150
How to open the Layers dialog box



general:000080
Writing



FALSE
10
{\rtf1\ansi\ansicpg1252\deff0\deflang1033{\fonttbl{\f0\fswiss Arial;}{\f1\froman Times New Roman;}{\f2\froman\fcharset0 Times New Roman;}}
{\colortbl ;\red0\green0\blue255;\red0\green128\blue0;\red128\green0\blue0;}
\viewkind4\uc1\pard\cf1\b\f0\fs32 How to open the Layers dialog box\cf0\b0\f1\fs24 
\par 
\par There are two ways of opening the Layers dialog box: select \b View|Layers...\b0  from the menu or click on the \b Layers\b0  button on the \cf2\strike Layers\f2 '\f1  floater\cf3\strike0\{linkID=110\}\cf0 . Both are illustrated below.
\par 
\par \cf3\{bmc LayerMenu.BMP\}\cf0  \cf3\{bmc LayerButton.BMP\}
\par 
\par \cf0 Next: \cf2\strike How to add new layers\cf3\strike0\{linkID=160\}\cf0 
\par }
160
Scribble160
How to add new layers



general:000090
Writing



FALSE
10
{\rtf1\ansi\deff0\deflang1033{\fonttbl{\f0\fswiss Arial;}{\f1\froman Times New Roman;}}
{\colortbl ;\red0\green0\blue255;\red0\green128\blue0;\red128\green0\blue0;}
\viewkind4\uc1\pard\cf1\b\f0\fs32 How to add new layers\cf0\b0\f1\fs24 
\par 
\par First, \cf2\strike open the Layers dialog box\cf3\strike0\{linkID=150\}\cf0 . Then decide the position where you want the new layer to appear in the layer structure. Select the layer just above that position in the layer structure from the list of layers in the upper half of the dialog box. Then click on the \b New\b0  button in the upper half of the dialog box. By default, an information layer will be created. If you want it to be some other sort of layer, change it to the type you want by selecting the correct type from the menu in the \b Type\b0  column.
\par 
\par \cf3\{bmc NewLayer.BMP\}
\par 
\par \cf0 Next: \cf2\strike How to add new Argus ONE parameters\cf3\strike0\{linkID=170\}\cf0 
\par }
170
Scribble170
How to add new Argus ONE parameters



general:000100
Writing



FALSE
10
{\rtf1\ansi\deff0\deflang1033{\fonttbl{\f0\fswiss Arial;}{\f1\froman Times New Roman;}}
{\colortbl ;\red0\green0\blue255;\red0\green128\blue0;\red128\green0\blue0;}
\viewkind4\uc1\pard\cf1\b\f0\fs32 How to add new Argus ONE parameters\cf0\b0\f1\fs24 
\par 
\par First, \cf2\strike open the Layers dialog box\cf3\strike0\{linkID=150\}\cf0 . Then in the upper half of the dialog box, select the layer to which you wish to add a new parameter. A list of parameters for that layer will appear in the bottom half of the dialog box. Decide on the position where you want your parameter to appear in the list of parameters. Choose the parameter before that position by clicking on it in the list of parameters. Click on the \b New\b0  button to create the new parameters. By default, the new parameter will be a real number. If you want to be of some other type, such as a string, integer of boolean, select the type you want from the pull down menu in the \b Type\b0  column in the lower half of the dialog box. \cf2\strike You can also assign an expression to the parameter\cf3\strike0\{linkID=180\}\cf0 .
\par 
\par \cf3\{bmc NewParameter.BMP\}
\par 
\par \cf0 Next: \cf2\strike How to open the expression editor\cf3\strike0\{linkID=180\}\cf0 
\par }
180
Scribble180
How to open the expression editor



general:000110
Writing



FALSE
10
{\rtf1\ansi\deff0\deflang1033{\fonttbl{\f0\fswiss Arial;}{\f1\froman Times New Roman;}}
{\colortbl ;\red0\green0\blue255;\red0\green128\blue0;\red128\green0\blue0;}
\viewkind4\uc1\pard\cf1\b\f0\fs32 How to open the expression editor\cf0\b0\f1\fs24 
\par 
\par First, \cf2\strike open the Layers dialog box\cf3\strike0\{linkID=150\}\cf0 . Then in the upper half of the dialog box, select the layer which has the parameter whose expression you wish to edit. A list of parameters for that layer will appear in the bottom half of the dialog box. Select the parameter you want. Unless the expression is locked, a button labeled \b fx\b0  will appear in the Value column. Click on this button. The expression editor will appear. (You can read about locked expressions in the Argus ONE documentation. Generally, if something is locked, it is unwise to change it.)
\par 
\par \cf3\{bmc FxButton.BMP\}
\par 
\par \cf0 Next: \cf2\strike How to edit expressions\cf3\strike0\{linkID=190\}\cf0 
\par }
190
Scribble190
How to edit expressions



general:000120
Writing



FALSE
55
{\rtf1\ansi\deff0\deflang1033{\fonttbl{\f0\fswiss Arial;}{\f1\froman Times New Roman;}}
{\colortbl ;\red0\green0\blue255;\red0\green128\blue0;\red128\green0\blue0;}
\viewkind4\uc1\pard\cf1\b\f0\fs32 How to edit expressions\cf0\b0\f1\fs24 
\par 
\par First, \cf2\strike open the expression editor\cf3\strike0\{linkID=180\}\cf0  for the expression you wish to edit. 
\par 
\par A simple expression would just link one parameter to another. For example you might want to link the top of each layer with the bottom of the layer above it so that they will automatically have the same value. To do this, first select the layer that you wish to link to from the list of layers. A list of parameters for that layer will appear.
\par 
\par \cf3\{bmc Expression1.BMP\}\cf0 
\par 
\par Next select the parameter you wish to link to from the list of parameters. Double click on it and it will be transferred to the expression. You may now click the OK button to return to the Layers dialog.
\par 
\par \cf3\{bmc Expression2.BMP\}\cf0 
\par 
\par You can have more complicated expressions. Here is an example.
\par 
\par \b 1. \b0 Delete the existing expression
\par \b 2. \b0 Above the list of layers is a list of functions. Select \b Mathematical\b0 . A list of mathematical functions will appear.
\par 
\par \cf3\{bmc Expression3.BMP\}\cf0 
\par 
\par \b 3. \b0 From the list of functions, double click on the \b If\b0  function.
\par 
\par \cf3\{bmc Expression4.BMP\}\cf0 
\par 
\par \b 4. \b0 With \b Condition\b0  highlighted in the expression select \b Elevation Top Unit1\b0  from the list of layers and then double click on \b Elevation Top Unit1\b0  from the list of parameters for that layer. (The layer \b Elevation Top Unit1\b0  is automatically created by the MODFLOW GUI but it may not be present in other sorts of models. In addition, you can not link a parameter to itself so the \b Elevation Top Unit1\b0  parameter will be visible but disabled if you are editing the \b Elevation Top Unit1\b0  parameter.)
\par 
\par \cf3\{bmc Expression5.BMP\}\cf0 
\par 
\par \b 5. \b0 Using the buttons on the left side of the dialog box enter "\b > 20\b0 ".
\par 
\par \cf3\{bmc Expression6.BMP\}\cf0 
\par 
\par \b 6. \b0 In the expression, double click on \b True_Value\b0  to select it.
\par 
\par \cf3\{bmc Expression7.BMP\}\cf0 
\par 
\par \b 7. \b0 Select \b Elevation Top Unit1\b0  from the list of layers and then double click on \b Elevation Top Unit1\b0  from the list of parameters for that layer. 
\par 
\par \cf3\{bmc Expression8.BMP\}\cf0 
\par 
\par \b 8. \b0 In the expression, double click on \b False_Value\b0  to select it.
\par 
\par \cf3\{bmc Expression9.BMP\}\cf0 
\par 
\par \b 9. \b0 Using the buttons on the left side of the dialog box enter "\b 20\b0 ".
\par 
\par \cf3\{bmc Expression10.BMP\}\cf0 
\par 
\par The expression should now read "\b If(Elevation Top Unit1>20, Elevation Top Unit1, 20)\b0 ". This expression will test if \b Elevation Top Unit1\b0  is greater than 20. If it is, the result will be \b Elevation Top Unit1\b0 . If \b Elevation Top Unit1\b0  is less than 20, the result will be 20.
\par 
\par Much more complicated expressions are possible. Read the Argus ONE documentation for more information.
\par 
\par Next: \cf2\strike How to change the way layers are evaluated\cf3\strike0\{linkID=200\}\cf0 
\par }
200
Scribble200
How to change the way layers are evaluated



general:000130
Writing



FALSE
10
{\rtf1\ansi\deff0\deflang1033{\fonttbl{\f0\fswiss Arial;}{\f1\froman Times New Roman;}}
{\colortbl ;\red0\green0\blue255;\red0\green128\blue0;\red128\green0\blue0;}
\viewkind4\uc1\pard\cf1\b\f0\fs32 How to change the way layers are evaluated\cf0\b0\f1\fs24 
\par 
\par First, \cf2\strike open the Layers dialog box\cf3\strike0\{linkID=150\}\cf0 . At the bottom of the Layers dialog box is a field that says "\b When probed for value use:\b0 " followed by the current layer evaluation method. Unless it is locked, you can change the method by clicking on the current method and picking the method you want from the list of methods. (You can read about locked interpretation methods in the Argus ONE documentation. Generally, if something is locked, it is unwise to change it.) The Argus ONE documentation describes each of the built-in interpretation methods (\b Nearest\b0 , \b Exact\b0 , and \b Interpolation\b0 ). The other methods are defined in PIEs (Plug-In Extensions) written by Argus Interware or outside parties and may or may not be documented. 
\par 
\par \cf3\{bmc Interpretation.BMP\}
\par 
\par \cf0 Next: \cf2\strike How to visualize input to MODFLOW\cf3\strike0\{linkID=220\}\cf0 
\par }
210
Scribble210
How to edit non-spatial MODFLOW information



general:000140
Writing



FALSE
6
{\rtf1\ansi\deff0\deflang1033{\fonttbl{\f0\fswiss Arial;}{\f1\froman Times New Roman;}}
{\colortbl ;\red0\green0\blue255;}
\viewkind4\uc1\pard\cf1\b\f0\fs32 How to edit non-spatial MODFLOW information\cf0\b0\f1\fs24 
\par 
\par From the \b PIEs \b0 menu, select \b Edit Project Info...\b0 
\par }
220
Scribble220
How to visualize input to MODFLOW



general:000150
Writing



FALSE
10
{\rtf1\ansi\deff0\deflang1033{\fonttbl{\f0\fswiss Arial;}{\f1\froman Times New Roman;}}
{\colortbl ;\red0\green0\blue255;\red0\green128\blue0;\red128\green0\blue0;}
\viewkind4\uc1\pard\cf1\b\f0\fs32 How to visualize input to MODFLOW\cf0\b0\f1\fs24 
\par 
\par In most cases, you can display the data that will be passed to MODFLOW by first making the MODFLOW FD Grid layer the \cf2\strike active layer\cf3\strike0\{linkID=120\}\cf0 . Next, locate the Color bar on the left side of the main Argus ONE window. Click on the down arrow next to Color to display a popup menu. Select the parameter you wish to display from the list of parameters. 
\par 
\par \cf3\{bmc ColorMenu.BMP\}
\par 
\par \cf0 Next: \cf2\strike How to visualize output from MODFLOW\cf3\strike0\{linkID=230\}\cf0 
\par }
230
Scribble230
How to visualize output from MODFLOW



general:000160
Writing



FALSE
22
{\rtf1\ansi\ansicpg1252\deff0\deflang1033{\fonttbl{\f0\fswiss Arial;}{\f1\froman Times New Roman;}{\f2\froman\fcharset0 Times New Roman;}{\f3\fnil Courier New;}}
{\colortbl ;\red0\green0\blue255;\red0\green0\blue0;\red128\green0\blue0;\red0\green128\blue0;}
\viewkind4\uc1\pard\cf1\b\f0\fs32 How to visualize output from MODFLOW\cf0\b0\f1\fs24 
\par 
\par To visualize maps of output from MODFLOW or MOC3D\f2 /GWT\f1 , select the \b PIEs|MODFLOW/\f2 Solute Transport\f1  Post Processing\b0  menu item.
\par 
\par To visualize maps of output from MODPATH, select the \b PIEs|MODPATH Post Processing\b0  menu item.
\par 
\par \f2 For a 3D view of the output, you can use \b Model Viewer\b0 .  You can get \b Model Viewer\b0  from \cf2\strike\f3\fs20 http://water.usgs.gov/nrp/gwsoftware/modelviewer/ModelViewer.html\cf3\strike0\{link=*! ExecFile("http://water.usgs.gov/nrp/gwsoftware/modelviewer/ModelViewer.html")\}\cf0\f2\fs24 .\f1 
\par 
\par To visualize water budget data, use the \b\f2 GW_Chart\b0\f1  utility program that was developed in conjunction with the MODFLOW GUI.\f2   In the \b Chart Type\b0  menu, select \b Water Budgets\b0 .\f1 
\par 
\par To visualize hydrographs at selected cells, use the \b\f2 GW_Chart\b0\f1  utility program that was developed in conjunction with the MODFLOW GUI.\f2   In the \b Chart Type\b0  menu, select \b Hydrographs\b0 .\f1 
\par 
\par To visualize data for the Lake\f2  and Gage\f1  package\f2 s\f1 , use the \b\f2 GW_Chart \b0\f1 utility program that was developed in conjunction with the MODFLOW GUI.\f2   In the \b Chart Type\b0  menu, select \b Lake and Gage Plots\b0 .\f1 
\par 
\par To visualize data related to parameter estimation, use the \b\f2 GW_Chart\b0\f1  utility program that was developed in conjunction with the MODFLOW GUI.\f2   If you already have GW_Chart open and you have changed to a different chart type, in the \b Chart Type\b0  menu, select \b Calibration Plots\b0 .\f1 
\par 
\par By default, \b\f2 GW_Chart\b0\f1  \f2 is\f1  installed in \f2 a \f1  folders under the C:\\wrdapp folder when the MODFLOW GUI installation program is run.
\par 
\par Next: \cf4\strike How to access the MODFLOW GUI Help\cf3\strike0\{linkID=240\}\cf0 
\par }
240
Scribble240
How to access the MODFLOW GUI Help



general:000170
Writing



FALSE
16
{\rtf1\ansi\deff0\deflang1033{\fonttbl{\f0\fswiss Arial;}{\f1\froman Times New Roman;}{\f2\froman\fcharset0 Times New Roman;}}
{\colortbl ;\red0\green0\blue255;\red0\green128\blue0;\red128\green0\blue0;}
\viewkind4\uc1\pard\cf1\b\f0\fs32 How to access the MODFLOW GUI Help\cf0\b0\f1\fs24 
\par 
\par The help file for MODFLOW GUI is the primary documentation for the MODFLOW GUI. You should consult it about any questions you may have regarding the MODFLOW GUI. 
\par 
\par From the main Argus ONE window, you can access the help file for MODFLOW GUI by selecting \b PIEs|MODFLOW Help\b0 .
\par 
\par If you have a dialog box created by the MODFLOW GUI opened, it will generally have a \b Help\b0  button. You can click that button for help.
\par 
\par If a dialog box has a question mark icon near the upper right corner of the window, you can access the help by clicking on the help and then clicking on the control for which you want help.
\par 
\par Some controls display hints if you position the mouse over them.
\par 
\par \f2 Next: \cf2\strike Some useful PIEs\cf3\strike0\{linkID=300\}\cf0\f1 
\par }
300
Scribble300
Some useful PIEs



general:000180
Writing



FALSE
11
{\rtf1\ansi\ansicpg1252\deff0\deflang1033{\fonttbl{\f0\fswiss\fcharset0 Arial;}{\f1\froman Times New Roman;}{\f2\froman\fcharset0 Times New Roman;}{\f3\fnil Times New Roman;}{\f4\fnil\fcharset0 Times New Roman;}}
{\colortbl ;\red0\green0\blue255;\red0\green128\blue0;\red128\green0\blue0;\red0\green0\blue0;}
\viewkind4\uc1\pard\cf1\b\f0\fs32 Some useful PIEs\cf0\b0\f1\fs24 
\par 
\par \cf2\strike Utility PIE\cf3\strike0\{linkID=310\}\cf0 
\par \cf2\strike Spreadsheet\cf3\strike0\{linkID=330\}
\par \cf2\strike Convert\cf3\strike0\{linkID=340\}
\par \cf2\strike MODFLOW_ReadFileValue\cf3\strike0\{linkID=36\f2 0\}
\par 
\par \cf4\f3 Next\f4 : \cf2\strike Utility PIE\cf3\strike0\{linkID=310\}\cf2\strike\f1 
\par }
310
Scribble310
Utility PIE



general:000181
Writing



FALSE
10
{\rtf1\ansi\ansicpg1252\deff0\deflang1033{\fonttbl{\f0\fnil\fcharset0 Arial;}{\f1\fnil Times New Roman;}{\f2\froman\fcharset0 Times New Roman;}{\f3\froman Times New Roman;}{\f4\fnil Courier New;}{\f5\fnil\fcharset0 Times New Roman;}}
{\colortbl ;\red0\green0\blue255;\red0\green0\blue0;\red0\green128\blue0;\red128\green0\blue0;}
\viewkind4\uc1\pard\cf1\b\fs32 Utility PIE\cf2\b0\f1\fs24 
\par 
\par \cf0\f2 The Utility PIE (\cf3\strike\f3 Winston, 2001\cf4\strike0\{linkTarget=Winston2001\}\cf0\f2 ) is installed along with the MODFLOW GUI if the MODFLOW GUI is installed with the installer.  Otherwise, you can get it from \cf2\strike\f4\fs20 http://water.usgs.gov/nrp/gwsoftware/Utility/Utility.html\cf4\strike0\{link=*! ExecFile("http://water.usgs.gov/nrp/gwsoftware/Utility/Utility.html")\}\cf0\f2\fs24 .
\par 
\par It has a large number of useful commands and functions.  Check its documentation and help file for more information.  The Utility PIE supercedes some ealier PIEs such as the EditContours PIE \f3 documented in Appendix 1 of \cf3\strike Winston (1999)\cf4\strike0\{linkTarget=Winston99\}\cf0 .
\par 
\par \cf2\f1 Next\f5 : \cf3\strike Spreadsheet\cf4\strike0\{linkID=330\}\cf2\f1 
\par }
330
Scribble330
Spreadsheet



general:000210
Writing



FALSE
8
{\rtf1\ansi\deff0\deflang1033{\fonttbl{\f0\fswiss Arial;}{\f1\froman Times New Roman;}{\f2\fnil Times New Roman;}{\f3\fnil\fcharset0 Times New Roman;}}
{\colortbl ;\red0\green0\blue255;\red0\green0\blue0;\red0\green128\blue0;\red128\green0\blue0;}
\viewkind4\uc1\pard\cf1\b\f0\fs32 Spreadsheet\cf0\b0\f1\fs24 
\par 
\par This PIE is intended for importing a list of scattered points, specified in a spreadsheet-like text file, into Data or Information layers. It is written by Argus Interware and documented in the Argus ONE documentation. To find the documentation, select the \b Help|Help\b0  menu item from the Argus ONE main Window. Your web browser will start up and display the Argus ONE online documentation. Click on the Search button on the left side. The button has a picture of an eye on it. Search for "spreadsheet". 
\par 
\par \cf2\f2 Next\f3 : \cf3\strike Convert\cf4\strike0\{linkID=340\}\cf0\f1 
\par }
340
Scribble340
Convert



general:000220
Writing



FALSE
8
{\rtf1\ansi\deff0\deflang1033{\fonttbl{\f0\fswiss Arial;}{\f1\froman Times New Roman;}{\f2\fnil Times New Roman;}{\f3\fnil\fcharset0 Times New Roman;}}
{\colortbl ;\red0\green0\blue255;\red0\green0\blue0;\red0\green128\blue0;\red128\green0\blue0;}
\viewkind4\uc1\pard\cf1\b\f0\fs32 Convert\cf0\b0\f1\fs24 
\par 
\par Convert provides functions for unit conversions. These functions can be accessed in the expression editor under \b PIEs. \b0 Convert was written by Argus Interware.
\par 
\par \cf2\f2 Next\f3 : \cf3\strike MODFLOW_ReadFileValue\cf4\strike0\{linkID=360\}\cf0\f1 
\par }
360
Scribble360
MODFLOW_ReadFileValue



general:000240
Writing



FALSE
10
{\rtf1\ansi\deff0\deflang1033{\fonttbl{\f0\fswiss Arial;}{\f1\froman Times New Roman;}{\f2\fnil Times New Roman;}{\f3\fnil\fcharset0 Times New Roman;}}
{\colortbl ;\red0\green0\blue255;\red0\green128\blue0;\red128\green0\blue0;\red0\green0\blue0;}
\viewkind4\uc1\pard\cf1\b\f0\fs32 MODFLOW_ReadFileValue\cf0\b0\f1\fs24 
\par 
\par MODFLOW_ReadFileValue is a plug-in that reads values from a text file and supplies them to Argus as the return value of a function. This is useful if you wish to have a external program run Argus ONE but supply different values to MODFLOW on each of the different runs. This might occur if an external calibration program was calibrating a MODFLOW model created with Argus ONE.
\par 
\par MODFLOW_ReadFileValue is documented in Appendix 4 of \cf2\strike Winston (1999)\cf3\strike0\{linkTarget=Winston99\}\cf0 .
\par 
\par \cf4\f2 Next\f3 : \cf2\strike RMA: Introduction\cf3\strike0\{linkID=1000\}\cf0\f1 
\par }
1000
Scribble1000
RMA: Introduction



general:000250
Writing



FALSE
22
{\rtf1\ansi\ansicpg1252\deff0\deflang1033{\fonttbl{\f0\fswiss Arial;}{\f1\froman Times New Roman;}{\f2\froman\fcharset0 Times New Roman;}{\f3\froman Times-Roman;}}
{\colortbl ;\red0\green0\blue255;\red0\green128\blue0;\red128\green0\blue0;}
\viewkind4\uc1\pard\cf1\b\f0\fs32 RMA: Introduction\cf0\b0\f1\fs24 
\par 
\par This example is modified from \cf2\strike Hornberger and Konikow (1998)\cf3\strike0\{linkTarget=Hornberger and Konikow\}\cf0 . It has been changed to incorporate new features of the MODFLOW interface.
\par 
\par The two-dimensional sample problem is based loosely on the ground-water contamination problem documented at the Rocky Mountain Arsenal, Colorado (\cf2\strike Konikow, 1977\cf3\strike0\{linkTarget=Konikow\}\cf0 ). For \f2 teaching purposes\f1 , the properties and boundaries of the physical system have been approximated and greatly simplified. The results of this example problem, therefore, \f2 do\f1  have any direct bearing on the actual field situation in Colorado. All of the information needed to define the problem \f2 is\f1  presented in the \cf2\strike base map\cf3\strike0\{linkID=1005\}\cf0  and in Table 1. The area is bounded on two sides by impermeable bedrock, which act\f2 s\f1  as no-flow barriers. The boundary at the top of the map is dominated by a freshwater lake, which can be assumed to represent a fully penetrating constant-head boundary. A river acts as a constant-head boundary along the bottom edge of the map, but the river also slopes to the left. The saturated thickness is assumed constant, so the aquifer can be represented as confined. The aquifer is also discontinuous because of two bedrock islands. The source of contamination is assumed to be an unlined disposal pond. Flow is assumed to be at steady state and will to simulate solute transport in the aquifer for a period of 20 years.\f3\fs22 
\par \f1\fs24 
\par \pard\li260\tx3680\ul Table 1. Parameter values for two-dimensional sample problem
\par \ulnone 
\par \ul Parameter                   \ulnone                       \ul Value\ulnone 
\par hydraulic conductivity \tab 0.0001 m/s
\par storage coefficient \tab 0.0
\par effective porosity \tab 0.20
\par saturated thickness \tab 12 m
\par longitudinal dispersivity \tab 30 m
\par horizontal transverse dispersivity \tab 3 m
\par initial concentration \tab 0.0 mg/L
\par \ul total simulation time     \ulnone                     \ul 20 years       \ulnone                      
\par \pard 
\par Next: \cf2\strike RMA: Base Map\cf3\strike0\{linkID=1005\}\cf0 
\par }
1005
Scribble1005
RMA: Base Map



general:000260
Writing



FALSE
12