HelpScribble project file.
8
Yrbaneq S. Xbavxbj-050Q35
0
1
MOC3D Input instructions



TRUE


1
BrowseButtons()
0
FALSE
92
10
Scribble10
MODFLOW Name File



general:000010
Writing



FALSE
6
{\rtf1\ansi\deff0\deftab720{\fonttbl{\f0\fswiss MS Sans Serif;}{\f1\froman\fcharset2 Symbol;}{\f2\fswiss\fcharset1 Arial;}{\f3\fswiss\fcharset1 Arial;}{\f4\froman Times-Roman;}{\f5\froman Times-Italic;}}
{\colortbl\red0\green0\blue0;\red0\green0\blue255;}
\deflang1033\pard\plain\f3\fs32\cf1\b MODFLOW Name File
\par \plain\f3\fs20 
\par \plain\f4\fs24 Transport simulation is activated by including a record in the \plain\f5\fs24\i MODFLOW \plain\f4\fs24 name file using the file type (Ftype) \ldblquote CONC\rdblquote  to link to the transport name file. The transport name file specifies the files to be used when simulating solute transport in conjunction with a simulation of ground-water flow using \plain\f5\fs24\i MODFLOW\plain\f4\fs24 . The transport name file works in the same way as the \plain\f5\fs24\i MODFLOW \plain\f4\fs24 name file.\plain\f3\fs20 
\par }
20
Scribble20
MODFLOW Source and Sink Packages



general:000020
Writing



FALSE
8
{\rtf1\ansi\deff0\deftab720{\fonttbl{\f0\fswiss MS Sans Serif;}{\f1\froman\fcharset2 Symbol;}{\f2\fswiss\fcharset1 Arial;}{\f3\fswiss\fcharset1 Arial;}{\f4\froman Times-Italic;}{\f5\froman Times-Roman;}{\f6\fnil Symbol;}}
{\colortbl\red0\green0\blue0;\red0\green0\blue255;}
\deflang1033\pard\plain\f2\fs32\cf1\b MODFLOW Source and Sink Packages
\par \plain\f2\fs20 
\par \plain\f5\fs24 Except for recharge, concentrations associated with fluid sources ( \plain\f6\fs24 \'a2 \plain\f4\fs24\i C \plain\f5\fs24 ) are read as auxiliary parameters in the \plain\f4\fs24\i MODFLOW \plain\f5\fs24 source package. The source concentration is read from a new column appended to the end of each line of the data file describing a fluid sink/source (see documentation for revised \plain\f4\fs24\i MODFLOW \plain\f5\fs24 model; Harbaugh and McDonald, 1996a and 1996b). For example, concentrations associated with well nodes should be appended to the line in the WEL Package where the well\rquote s location and pumping rate are defined. These concentrations will be read if the auxiliary parameter \ldblquote CONCENTRATION\rdblquote  (or \ldblquote CONC\rdblquote ) appears on the first line of the well input data file. The concentration in recharge is defined separately, as described in following section \ldblquote Source Concentration in Recharge File.\rdblquote 
\par 
\par To simulate solute transport the \plain\f4\fs24\i MODFLOW \plain\f5\fs24 option enabling storage of cell-by-cell flow rates for each fluid source or sink is required in all fluid packages except recharge. The key word "CBCALLOCATE\rdblquote  (or \ldblquote CBC\rdblquote ) must appear on the first line of each input data file for a fluid package (see Harbaugh and McDonald, 1996a and 1996b).\plain\f3\fs20 
\par }
30
Scribble30
MOC3D Input Data Files



general:000030
Writing



FALSE
6
{\rtf1\ansi\deff0\deftab720{\fonttbl{\f0\fswiss MS Sans Serif;}{\f1\froman\fcharset2 Symbol;}{\f2\fswiss\fcharset1 Arial;}{\f3\fswiss\fcharset1 Arial;}{\f4\froman Times-Roman;}}
{\colortbl\red0\green0\blue0;\red0\green0\blue255;}
\deflang1033\pard\plain\f2\fs32\cf1\b MOC3D Input Data Files
\par \plain\f2\fs20 
\par \plain\f4\fs24 All input variables are read using free formats, except as specifically indicated. In free format, variables are separated by one or more spaces or by a comma and optionally one or more spaces. Blank spaces are not read as zeros.\plain\f3\fs20 
\par }
40
Scribble40
MOC3D Transport Name File (CONC)



general:000040
Writing



FALSE
9
{\rtf1\ansi\deff0\deftab720{\fonttbl{\f0\fswiss MS Sans Serif;}{\f1\froman\fcharset2 Symbol;}{\f2\fswiss\fcharset1 Arial;}{\f3\fswiss\fcharset1 Arial;}{\f4\froman Times-Roman;}{\f5\fmodern Courier;}{\f6\fswiss\fprq2 System;}{\f7\froman Times-Italic;}{\f8\fmodern Courier-Bold;}}
{\colortbl\red0\green0\blue0;\red128\green0\blue0;\red0\green0\blue255;\red0\green128\blue0;}
\deflang1033\pard\plain\f3\fs32\cf2\b MOC3D Transport Name File (CONC)
\par \plain\f3\fs20 
\par \plain\f4\fs24 FOR EACH SIMULATION:
\par \plain\f8\fs24\b 1\plain\f5\fs24 . Data: \plain\f5\fs24\cf3\strike FTYPE\plain\f5\fs24\cf1 \{linkID=50\}\plain\f5\fs24  \plain\f5\fs24\cf3\strike NUNIT\plain\f5\fs24\cf1 \{linkID=60\}\plain\f5\fs24  \plain\f5\fs24\cf3\strike FNAME\plain\f5\fs24\cf1 \{linkID=70\}\plain\f5\fs24 
\par 
\par \plain\f4\fs24 The name file consists of records defining the names and units numbers of the files. Each "record" consists of a separate line of data. There must be a record for the listing file and for the main \plain\f7\fs24\i MOC3D \plain\f4\fs24 input file. The listing (or output) file ("CLST") must be the first record. The other files may be in any order. Each record can be no more than 79 characters.\plain\f3\fs20 
\par }
50
Scribble50
FTYPE



general:000050
Writing



FALSE
22
{\rtf1\ansi\deff0\deftab720{\fonttbl{\f0\fswiss MS Sans Serif;}{\f1\froman\fcharset2 Symbol;}{\f2\fswiss\fcharset1 Arial;}{\f3\fswiss Arial;}{\f4\froman Times-BoldItalic;}{\f5\fmodern Courier;}{\f6\froman Times-Roman;}{\f7\froman Times-Italic;}{\f8\fswiss\fcharset1 Arial;}{\f9\fswiss\fprq2 System;}{\f10\fmodern Courier-Bold;}{\f11\fswiss Arial;}}
{\colortbl\red0\green0\blue0;\red0\green128\blue0;\red128\green0\blue0;\red0\green0\blue255;}
\deflang1033\pard\plain\f8\fs32\cf3\b FTYPE
\par \plain\f8\fs20 
\par \plain\f5\fs24 FTYPE \plain\f6\fs24 The file type, which may be one of the following character strings:
\par 
\par \pard\li580\fi-300\plain\f11\fs24 CLST \plain\f7\fs24\i MOC3D \plain\f6\fs24 listing file (separate from the \plain\f7\fs24\i MODFLOW \plain\f6\fs24 listing file) \plain\f7\fs24\i [required].
\par \plain\f11\fs24 MOC or MOCIMP \plain\f6\fs24 Main \plain\f7\fs24\i MOC3D \plain\f6\fs24 input data file \plain\f7\fs24\i [required]. \plain\f6\fs24 Specifying \plain\f4\fs24\b\i MOC \plain\f6\fs24 indicates dispersion calculations will be explicit (as described by Konikow and others, 1996) and specifying \plain\f4\fs24\b\i MOCIMP \plain\f6\fs24 indicates dispersion calculations will be implicit (as described in this report).
\par \plain\f11\fs24 CRCH \plain\f6\fs24 Concentrations in recharge \plain\f7\fs24\i [optional].
\par \plain\f11\fs24 CNCA \plain\f6\fs24 Separate output file containing concentration data in ASCII (text-only) format. Frequency and format of printing controlled by NPNTCL and ICONFM \plain\f7\fs24\i [optional].
\par \plain\f11\fs24 CNCB \plain\f6\fs24 Separate output file containing concentration data in binary format \plain\f7\fs24\i [optional].
\par \plain\f11\fs24 VELA \plain\f6\fs24 Separate output file with velocity data in ASCII format. Frequency and format of printing controlled by NPNTVL and IVELFM \plain\f7\fs24\i [optional].
\par \plain\f11\fs24 VELB \plain\f6\fs24 Separate output file with velocity data in binary format \plain\f7\fs24\i [optional].
\par \plain\f11\fs24 PRTA \plain\f6\fs24 Separate output file with particle locations printed in ASCII format. Frequency and format of printing controlled by NPNTPL \plain\f7\fs24\i [optional].
\par \plain\f11\fs24 PRTB \plain\f6\fs24 Separate output file with particle locations printed in binary format \plain\f7\fs24\i [optional].
\par \plain\f11\fs24 OBS \plain\f6\fs24 Observation wells input file \plain\f7\fs24\i [optional].
\par \plain\f11\fs24 DATA \plain\f6\fs24 For formatted files such as those required by the OBS package and for array data separate from the main \plain\f7\fs24\i MOC3D \plain\f6\fs24 input data file \plain\f7\fs24\i [optional].
\par \plain\f11\fs24 DATA(BINARY) \plain\f6\fs24 For formatted input/output files \plain\f7\fs24\i [optional].
\par \pard\li560\fi-280\plain\f3\fs25 AGE\plain\f10\fs25\b  \plain\f6\fs24 Ground-water age simulation input file \plain\f7\fs24\i [optional].
\par \plain\f3\fs25 DP\plain\f10\fs25\b  \plain\f6\fs24 Double porosity input file \plain\f7\fs24\i [optional].
\par \plain\f3\fs25 DK\plain\f10\fs25\b  \plain\f6\fs24 Simple reactions (decay, zero-order growth, retardation) input file \plain\f7\fs24\i [optional].\plain\f8\fs20 
\par }
60
Scribble60
NUNIT



general:000060
Writing



FALSE
6
{\rtf1\ansi\deff0\deftab720{\fonttbl{\f0\fswiss MS Sans Serif;}{\f1\froman\fcharset2 Symbol;}{\f2\fswiss\fcharset1 Arial;}{\f3\fswiss\fcharset1 Arial;}{\f4\fmodern Courier;}{\f5\froman Times-Roman;}{\f6\froman Times-Italic;}{\f7\fswiss\fprq2 System;}}
{\colortbl\red0\green0\blue0;\red0\green0\blue255;}
\deflang1033\pard\plain\f2\fs32\cf1\b NUNIT
\par \plain\f2\fs20 
\par \plain\f4\fs24 NUNIT \plain\f5\fs24 The FORTRAN unit number used to read from and write to files. Any legal unit number other than 97, 98, and 99 (which are reserved by \plain\f6\fs24\i MODFLOW\plain\f5\fs24 ) can be used provided that it is not previously specified in the \plain\f6\fs24\i MODFLOW \plain\f5\fs24 name file.\plain\f3\fs20 
\par }
70
Scribble70
FNAME



general:000070
Writing



FALSE
6
{\rtf1\ansi\deff0\deftab720{\fonttbl{\f0\fswiss MS Sans Serif;}{\f1\froman\fcharset2 Symbol;}{\f2\fswiss\fcharset1 Arial;}{\f3\fswiss\fcharset1 Arial;}{\f4\fmodern Courier;}{\f5\froman Times-Roman;}{\f6\fswiss\fprq2 System;}}
{\colortbl\red0\green0\blue0;\red0\green0\blue255;}
\deflang1033\pard\plain\f2\fs32\cf1\b FNAME
\par \plain\f2\fs20 
\par \plain\f4\fs24 FNAME \plain\f5\fs24 The name of the file.\plain\f3\fs20 
\par }
80
Scribble80
Main MOC3D Package Input (MOC)



general:000080
Writing



FALSE
79
{\rtf1\ansi\deff0\deftab720{\fonttbl{\f0\fswiss MS Sans Serif;}{\f1\froman\fcharset2 Symbol;}{\f2\fswiss\fcharset1 Arial;}{\f3\fswiss\fcharset1 Arial;}{\f4\fmodern Courier-Bold;}{\f5\froman Times-Roman;}{\f6\fswiss\fprq2 System;}{\f7\fmodern Courier;}{\f8\fnil Symbol;}{\f9\froman Times-Italic;}}
{\colortbl\red0\green0\blue0;\red0\green0\blue255;\red128\green0\blue0;\red0\green128\blue0;}
\deflang1033\pard\plain\f3\fs32\cf1\b Main MOC3D Package Input (MOC)
\par \plain\f3\fs20 
\par \plain\f5\fs24 Input for the method-of-characteristics (\plain\f9\fs24\i MOC3D\plain\f5\fs24 ) solute-transport package is read from the unit specified in the transport name file. The input consists of 18 separate records or data sets, as described in detail below. These data are used to specify information about the transport subgrid, physical and chemical transport parameters, numerical solution variables, and output formats. Output file controls for the \plain\f9\fs24\i MOC3D \plain\f5\fs24 package are specified in the transport name file, described previously.
\par 
\par \plain\f5\fs24\b FOR EACH SIMULATION:\plain\f5\fs24 
\par \plain\f4\fs24\b 
\par \plain\f4\fs24\cf2\b \{target=Main1\}\plain\f4\fs24\b 1\plain\f7\fs24 . Data: \plain\f7\fs24\cf3\strike HEDMOC\plain\f7\fs24\cf2 \{linkID=100\}\plain\f7\fs24  \plain\f5\fs24 
\par \plain\f4\fs24\b 
\par \plain\f4\fs24\cf2\b \{target=Main2\}\plain\f4\fs24\b 2\plain\f7\fs24 . Data: \plain\f7\fs24\cf3\strike HEDMOC\plain\f7\fs24\cf2 \{linkID=100\}\plain\f7\fs24  (continued)
\par \plain\f4\fs24\b 
\par \plain\f4\fs24\cf2\b \{target=Main3\}\plain\f4\fs24\b 3\plain\f7\fs24 . Data: \plain\f7\fs24\cf3\strike ISLAY1\plain\f7\fs24\cf2 \{linkID=110\}\plain\f7\fs24  \plain\f7\fs24\cf3\strike ISLAY2\plain\f7\fs24\cf2 \{linkID=120\}\plain\f7\fs24  \plain\f7\fs24\cf3\strike ISROW1\plain\f7\fs24\cf2 \{linkID=130\}\plain\f7\fs24  \plain\f7\fs24\cf3\strike ISROW2\plain\f7\fs24\cf2 \{linkID=140\}\plain\f7\fs24  \plain\f7\fs24\cf3\strike ISCOL1\plain\f7\fs24\cf2 \{linkID=150\}\plain\f7\fs24  \plain\f7\fs24\cf3\strike ISCOL2\plain\f7\fs24\cf2 \{linkID=160\}\plain\f7\fs24   (See: \plain\f7\fs24\cf3\strike Notes on Transport Subgrid\plain\f7\fs24\cf2 \{linkID=170\}\plain\f7\fs24 )
\par \plain\f4\fs24\b 
\par \plain\f4\fs24\cf2\b \{target=Main4\}\plain\f4\fs24\b 4\plain\f7\fs24 . Data: \plain\f7\fs24\cf3\strike NODISP\plain\f7\fs24\cf2 \{linkID=180\}\plain\f7\fs24  \plain\f7\fs24\cf3\strike DECAY\plain\f7\fs24\cf2 \{linkID=190\}\plain\f7\fs24  \plain\f7\fs24\cf3\strike DIFFUS\plain\f7\fs24\cf2 \{linkID=200\}\plain\f7\fs24 
\par \plain\f4\fs24\b 
\par \plain\f4\fs24\cf2\b \{target=Main5\}\plain\f4\fs24\b 5\plain\f7\fs24 . Data: \plain\f7\fs24\cf3\strike NPMAX\plain\f7\fs24\cf2 \{linkID=210\}\plain\f7\fs24  \plain\f7\fs24\cf3\strike NPTPND\plain\f7\fs24\cf2 \{linkID=220\}\plain\f7\fs24 
\par \plain\f4\fs24\b 
\par \plain\f5\fs24\b IF \plain\f9\fs24\cf3\b\strike NPTPND\plain\f9\fs24\cf2\b \{linkID=220\}\plain\f9\fs24\b  \plain\f5\fs24\b IS NEGATIVE IN SIGN:\plain\f5\fs24 
\par 
\par \plain\f4\fs24\cf2\b \{target=Main6\}\plain\f4\fs24\b 6\plain\f7\fs24 . Data: \plain\f7\fs24\cf3\strike PNEWL\plain\f7\fs24\cf2 \{linkID=230\}\plain\f7\fs24  \plain\f7\fs24\cf3\strike PNEWR\plain\f7\fs24\cf2 \{linkID=240\}\plain\f7\fs24  \plain\f7\fs24\cf3\strike PNEWC\plain\f7\fs24\cf2 \{linkID=250\}\plain\f7\fs24  (See: \plain\f7\fs24\cf3\strike Notes on initial particle coordinates\plain\f7\fs24\cf2 \{linkID=260\}\plain\f7\fs24 )
\par \plain\f4\fs24\b 
\par \plain\f4\fs24\cf2\b \{target=Main7\}\plain\f4\fs24\b 7\plain\f7\fs24 . Data: \plain\f7\fs24\cf3\strike CELDIS\plain\f7\fs24\cf2 \{linkID=270\}\plain\f7\fs24  \plain\f7\fs24\cf3\strike FZERO\plain\f7\fs24\cf2 \{linkID=271\}\plain\f7\fs24  \plain\f7\fs24\cf3\strike INTRPL\plain\f7\fs24\cf2 \{linkID=272\}\plain\f7\fs24 
\par \plain\f4\fs24\b 
\par \plain\f5\fs24\b FOR EACH SIMULATION (only if \plain\f9\fs24\b MOCIMP \plain\f5\fs24\b is specified in Transport Name File):
\par \plain\f5\fs24 
\par \plain\f4\fs24\cf2\b \{target=Main7.1\}\plain\f4\fs24\b 7.1 \plain\f7\fs24 Data: \plain\f7\fs24\cf3\strike FDTMTH\plain\f7\fs24\cf2 \{linkID=280\}\plain\f7\fs24  \plain\f7\fs24\cf3\strike NCXIT\plain\f7\fs24\cf2 \{linkID=290\}\plain\f7\fs24  \plain\f7\fs24\cf3\strike IDIREC\plain\f7\fs24\cf2 \{linkID=300\}\plain\f7\fs24  \plain\f7\fs24\cf3\strike EPSSLV\plain\f7\fs24\cf2 \{linkID=310\}\plain\f7\fs24  \plain\f7\fs24\cf3\strike MAXIT\plain\f7\fs24\cf2 \{linkID=320\} \plain\f7\fs24 (See: \plain\f7\fs24\cf3\strike Notes on default values for data set 7.1\plain\f7\fs24\cf2 \{linkID=330\}\plain\f7\fs24 .)\plain\f7\fs24 
\par \plain\f4\fs24\b 
\par \plain\f4\fs24\cf2\b \{target=Main8\}\plain\f4\fs24\b 8\plain\f7\fs24 . Data: \plain\f7\fs24\cf3\strike NPNTCL\plain\f7\fs24\cf2 \{linkID=360\}\plain\f7\fs24  \plain\f7\fs24\cf3\strike ICONFM\plain\f7\fs24\cf2 \{linkID=370\}\plain\f7\fs24  \plain\f7\fs24\cf3\strike NPNTVL\plain\f7\fs24\cf2 \{linkID=380\}\plain\f7\fs24  \plain\f7\fs24\cf3\strike IVELFM\plain\f7\fs24\cf2 \{linkID=390\}\plain\f7\fs24  \plain\f7\fs24\cf3\strike NPNTDL\plain\f7\fs24\cf2 \{linkID=400\}\plain\f7\fs24  \plain\f7\fs24\cf3\strike IDSPFM\plain\f7\fs24\cf2 \{linkID=410\}\plain\f7\fs24  \plain\f7\fs24\cf3\strike NPNTPL\plain\f7\fs24\cf2 \{linkID=420\}\plain\f7\fs24 
\par \plain\f4\fs24\b 
\par \plain\f4\fs24\cf2\b \{target=Main9\}\plain\f4\fs24\b 9\plain\f7\fs24 . Data: \plain\f7\fs24\cf3\strike CNOFLO\plain\f7\fs24\cf2 \{linkID=440\}\plain\f5\fs24 
\par 
\par \plain\f5\fs24\b FOR EACH LAYER OF THE TRANSPORT SUBGRID:\plain\f5\fs24 
\par \plain\f4\fs24\b 
\par \plain\f4\fs24\cf2\b \{target=Main10\}\plain\f4\fs24\b 10\plain\f7\fs24 . Data: \plain\f7\fs24\cf3\strike CINT\plain\f7\fs24\cf2 \{linkID=450\}\plain\f7\fs24 (NSCOL,NSROW)\plain\f5\fs24 
\par \plain\f7\fs24 Module: U2DREL \plain\f5\fs18 *
\par \plain\f5\fs24 
\par \plain\f5\fs24\b FOR EACH SIMULATION, ONLY IF TRANSPORT SUBGRID DIMENSIONS ARE SMALLER THAN FLOW GRID DIMENSIONS:\plain\f5\fs24 
\par \plain\f4\fs24\b 
\par \plain\f4\fs24\cf2\b \{target=Main11\}\plain\f4\fs24\b 11\plain\f7\fs24 . Data: \plain\f7\fs24\cf3\strike CINFL\plain\f7\fs24\cf2 \{linkID=460\}\plain\f7\fs24 (ICINFL)\plain\f5\fs24 
\par \plain\f7\fs24 Module: U1DREL \plain\f5\fs18 *
\par \plain\f5\fs24 
\par \plain\f5\fs24\b FOR EACH SIMULATION\plain\f5\fs24 
\par \plain\f4\fs24\b 
\par \plain\f4\fs24\cf2\b \{target=Main12\}\plain\f4\fs24\b 12\plain\f7\fs24 . Data: \plain\f7\fs24\cf3\strike NZONES\plain\f7\fs24\cf2 \{linkID=470\}\plain\f5\fs24 
\par 
\par \plain\f5\fs24\b \tab IF \plain\f9\fs24\b NZONES \plain\f5\fs24\b > 0:\plain\f5\fs24 
\par \plain\f7\fs24 
\par Data: \plain\f7\fs24\cf3\strike IZONE\plain\f7\fs24\cf2 \{linkID=470\}\plain\f7\fs24  \plain\f7\fs24\cf3\strike ZONCON\plain\f7\fs24\cf2 \{linkID=470\}\plain\f7\fs24 
\par 
\par \plain\f5\fs24\b FOR EACH LAYER OF THE TRANSPORT SUBGRID:\plain\f5\fs24 
\par \plain\f4\fs24\b 
\par \plain\f4\fs24\cf2\b \{target=Main13\}\plain\f4\fs24\b 13\plain\f7\fs24 . Data: \plain\f7\fs24\cf3\strike IGENPT\plain\f7\fs24\cf2 \{linkID=510\}\plain\f7\fs24 (NSCOL,NSROW) \plain\f5\fs24 
\par \plain\f7\fs24 Module: U2DINT \plain\f5\fs18 *
\par \plain\f3\fs20 
\par \plain\f5\fs24\b IF \plain\f9\fs24\cf3\b\strike NODISP\plain\f9\fs24\cf2\b \{linkID=180\}\plain\f9\fs24\b  \plain\f8\fs24\b \'b9 \plain\f5\fs24\b 1 (If dispersion is included in simulation):\plain\f5\fs24 
\par \plain\f4\fs24\b 
\par \plain\f4\fs24\cf2\b \{target=Main14\}\plain\f4\fs24\b 14\plain\f7\fs24 . Data: \plain\f7\fs24\cf3\strike ALONG\plain\f7\fs24\cf2 \{linkID=520\}\plain\f7\fs24 (NSLAY)\plain\f5\fs24 
\par \plain\f7\fs24 Module: U1DREL \plain\f5\fs18 *
\par \plain\f4\fs24\b 
\par \plain\f4\fs24\cf2\b \{target=Main15\}\plain\f4\fs24\b 15\plain\f7\fs24 . Data: \plain\f7\fs24\cf3\strike ATRANH\plain\f7\fs24\cf2 \{linkID=530\}\plain\f7\fs24 (NSLAY)\plain\f5\fs24 
\par \plain\f7\fs24 Module: U1DREL \plain\f5\fs18 *
\par \plain\f4\fs24\b 
\par \plain\f4\fs24\cf2\b \{target=Main16\}\plain\f4\fs24\b 16\plain\f7\fs24 . Data: \plain\f7\fs24\cf3\strike ATRANV\plain\f7\fs24\cf2 \{linkID=540\}\plain\f7\fs24 (NSLAY)\plain\f5\fs24 
\par \plain\f7\fs24 Module: U1DREL \plain\f5\fs18 *
\par 
\par \plain\f5\fs24\b FOR EACH SIMULATION:\plain\f5\fs24 
\par \plain\f4\fs24\b 
\par \plain\f4\fs24\cf2\b \{target=Main17\}\plain\f4\fs24\b 17\plain\f7\fs24 . Data: \plain\f7\fs24\cf3\strike RF\plain\f7\fs24\cf2 \{linkID=550\}\plain\f7\fs24 (NSLAY)\plain\f5\fs24 
\par \plain\f7\fs24 Module: U1DREL \plain\f5\fs18 *
\par \plain\f5\fs24 
\par \plain\f5\fs24\b FOR EACH LAYER OF TRANSPORT SUBGRID:\plain\f5\fs24 
\par \plain\f4\fs24\b 
\par \plain\f4\fs24\cf2\b \{target=Main18a\}\plain\f4\fs24\b 18a\plain\f7\fs24 . Data: \plain\f7\fs24\cf3\strike THCK\plain\f7\fs24\cf2 \{linkID=560\}\plain\f7\fs24 (NSCOL,NSROW)\plain\f5\fs24 .
\par \plain\f7\fs24 Module: U2DREL \plain\f5\fs18 *
\par \plain\f4\fs24\b 
\par \plain\f4\fs24\cf2\b \{target=Main18b\}\plain\f4\fs24\b 18b\plain\f7\fs24 . Data: \plain\f7\fs24\cf3\strike POR\plain\f7\fs24\cf2 \{linkID=570\}\plain\f7\fs24 (NSCOL,NSRO)\plain\f5\fs24 . (See: \plain\f5\fs24\cf3\strike Notes on thickness and porosity\plain\f5\fs24\cf2 \{linkID=580\}\plain\f5\fs24 .)
\par \plain\f7\fs24 Module: U2DREL \plain\f5\fs18 *\plain\f3\fs20 
\par }
90
Scribble90
MOC3D Arrray sizes



general:000090
Writing



FALSE
12
{\rtf1\ansi\deff0\deftab720{\fonttbl{\f0\fswiss MS Sans Serif;}{\f1\froman\fcharset2 Symbol;}{\f2\fswiss\fcharset1 Arial;}{\f3\fswiss\fcharset1 Arial;}{\f4\froman\fcharset1 Times New Roman;}{\f5\fswiss\fprq2 System;}}
{\colortbl\red0\green0\blue0;\red0\green128\blue0;\red0\green0\blue255;\red128\green0\blue0;}
\deflang1033\pard\plain\f2\fs32\cf2\b MOC3D Arrray sizes
\par \plain\f2\fs20 
\par \plain\f4\fs24 NSROW = number of subgrid rows =  \plain\f4\fs24\cf1\strike ISROW2\plain\f4\fs24\cf3 \{linkID=140\}\plain\f4\fs24  - \plain\f4\fs24\cf1\strike ISROW1\plain\f4\fs24\cf3 \{linkID=130\}\plain\f4\fs24  + 1
\par NSCOL = number of subgrid columns = \plain\f4\fs24\cf1\strike ISCOL2\plain\f4\fs24\cf3 \{linkID=160\}\plain\f4\fs24  - \plain\f4\fs24\cf1\strike ISCOL1\plain\f4\fs24\cf3 \{linkID=150\}\plain\f4\fs24  + 1
\par NSLAY = number of subgrid layers = \plain\f4\fs24\cf1\strike ISLAY2\plain\f4\fs24\cf3 \{linkID=120\}\plain\f4\fs24  - \plain\f4\fs24\cf1\strike ISLAY1\plain\f4\fs24\cf3 \{linkID=110\}\plain\f4\fs24  + 1
\par 
\par See also: \plain\f4\fs24\cf1\strike Notes on Transport Subgrid\plain\f4\fs24\cf3 \{linkID=170\}\plain\f3\fs20\cf1\strike 
\par \plain\f2\fs20 
\par \plain\f3\fs20\cf1\strike 
\par }
100
Scribble100
HEDMOC



general:000100
Writing



FALSE
9
{\rtf1\ansi\deff0\deftab720{\fonttbl{\f0\fswiss MS Sans Serif;}{\f1\froman\fcharset2 Symbol;}{\f2\fswiss\fcharset1 Arial;}{\f3\fswiss\fcharset1 Arial;}{\f4\froman Times-Roman;}{\f5\fmodern Courier;}}
{\colortbl\red0\green0\blue0;\red0\green0\blue255;\red128\green0\blue0;\red0\green128\blue0;}
\deflang1033\pard\plain\f3\fs32\cf1\b HEDMOC
\par \plain\f3\fs20 
\par \plain\f5\fs24 HEDMOC \plain\f4\fs24 A two-line character-string title describing the simulation (80 text characters per line).
\par 
\par Data sets \plain\f4\fs24\cf3\strike 1\plain\f4\fs24\cf2 \{linkTarget=Main1\}\plain\f4\fs24  and \plain\f4\fs24\cf3\strike 2\plain\f4\fs24\cf2 \{linkTarget=Main2\}\plain\f4\fs24  of the \plain\f4\fs24\cf3\strike Main MOC3D Package Input (MOC)\plain\f4\fs24\cf2 \{linkID=80\}\plain\f4\fs24 .
\par \plain\f3\fs20 
\par }
110
Scribble110
ISLAY1



general:000110
Writing



FALSE
11
{\rtf1\ansi\deff0\deftab720{\fonttbl{\f0\fswiss MS Sans Serif;}{\f1\froman\fcharset2 Symbol;}{\f2\fswiss\fcharset1 Arial;}{\f3\fswiss\fcharset1 Arial;}{\f4\froman Times-Roman;}{\f5\fswiss\fprq2 System;}{\f6\fmodern Courier;}}
{\colortbl\red0\green0\blue0;\red0\green0\blue255;\red128\green0\blue0;\red0\green128\blue0;}
\deflang1033\pard\plain\f3\fs32\cf1\b ISLAY1
\par \plain\f3\fs20 
\par \plain\f6\fs24 ISLAY1 \plain\f4\fs24 Number of first (uppermost) layer for transport.
\par 
\par Data set \plain\f4\fs24\cf3\strike 3\plain\f4\fs24\cf2 \{linkTarget=Main3\}\plain\f4\fs24  of the \plain\f4\fs24\cf3\strike Main MOC3D Package Input (MOC)\plain\f4\fs24\cf2 \{linkID=80\}\plain\f4\fs24 .
\par 
\par See also: \plain\f4\fs24\cf3\strike Notes on Transport Subgrid\plain\f4\fs24\cf2 \{linkID=170\}
\par \plain\f3\fs20 
\par }
120
Scribble120
ISLAY2



general:000120
Writing



FALSE
11
{\rtf1\ansi\deff0\deftab720{\fonttbl{\f0\fswiss MS Sans Serif;}{\f1\froman\fcharset2 Symbol;}{\f2\fswiss\fcharset1 Arial;}{\f3\fswiss\fcharset1 Arial;}{\f4\froman Times-Roman;}{\f5\fswiss\fprq2 System;}{\f6\fmodern Courier;}}
{\colortbl\red0\green0\blue0;\red0\green0\blue255;\red128\green0\blue0;\red0\green128\blue0;}
\deflang1033\pard\plain\f3\fs32\cf1\b ISLAY2
\par \plain\f3\fs20 
\par \plain\f6\fs24 ISLAY2 \plain\f4\fs24 Last layer for transport.
\par 
\par Data set \plain\f4\fs24\cf3\strike 3\plain\f4\fs24\cf2 \{linkTarget=Main3\}\plain\f4\fs24  of the \plain\f4\fs24\cf3\strike Main MOC3D Package Input (MOC)\plain\f4\fs24\cf2 \{linkID=80\}\plain\f4\fs24 .
\par 
\par See also: \plain\f4\fs24\cf3\strike Notes on Transport Subgrid\plain\f4\fs24\cf2 \{linkID=170\}
\par \plain\f3\fs20 
\par }
130
Scribble130
ISROW1



general:000130
Writing



FALSE
12
{\rtf1\ansi\deff0\deftab720{\fonttbl{\f0\fswiss MS Sans Serif;}{\f1\froman\fcharset2 Symbol;}{\f2\fswiss\fcharset1 Arial;}{\f3\fswiss\fcharset1 Arial;}{\f4\froman Times-Roman;}{\f5\fswiss\fprq2 System;}{\f6\fmodern Courier;}}
{\colortbl\red0\green0\blue0;\red0\green0\blue255;\red128\green0\blue0;\red0\green128\blue0;}
\deflang1033\pard\plain\f3\fs32\cf1\b ISROW1
\par \plain\f3\fs20 
\par \plain\f6\fs24 ISROW1 \plain\f4\fs24 First row for transport.
\par 
\par Data set \plain\f4\fs24\cf3\strike 3\plain\f4\fs24\cf2 \{linkTarget=Main3\}\plain\f4\fs24  of the \plain\f4\fs24\cf3\strike Main MOC3D Package Input (MOC)\plain\f4\fs24\cf2 \{linkID=80\}\plain\f4\fs24 .
\par 
\par See also: \plain\f4\fs24\cf3\strike Notes on Transport Subgrid\plain\f4\fs24\cf2 \{linkID=170\}
\par \plain\f3\fs20 
\par 
\par }
140
Scribble140
ISROW2



general:000140
Writing



FALSE
12
{\rtf1\ansi\deff0\deftab720{\fonttbl{\f0\fswiss MS Sans Serif;}{\f1\froman\fcharset2 Symbol;}{\f2\fswiss\fcharset1 Arial;}{\f3\fswiss\fcharset1 Arial;}{\f4\froman Times-Roman;}{\f5\fswiss\fprq2 System;}{\f6\fmodern Courier;}}
{\colortbl\red0\green0\blue0;\red0\green0\blue255;\red128\green0\blue0;\red0\green128\blue0;}
\deflang1033\pard\plain\f3\fs32\cf1\b ISROW2
\par \plain\f3\fs20 
\par \plain\f6\fs24 ISROW2 \plain\f4\fs24 Last row for transport.
\par 
\par Data set \plain\f4\fs24\cf3\strike 3\plain\f4\fs24\cf2 \{linkTarget=Main3\}\plain\f4\fs24  of the \plain\f4\fs24\cf3\strike Main MOC3D Package Input (MOC)\plain\f4\fs24\cf2 \{linkID=80\}\plain\f4\fs24 .
\par 
\par See also: \plain\f4\fs24\cf3\strike Notes on Transport Subgrid\plain\f4\fs24\cf2 \{linkID=170\}
\par \plain\f3\fs20 
\par 
\par }
150
Scribble150
ISCOL1



general:000150
Writing



FALSE
12
{\rtf1\ansi\deff0\deftab720{\fonttbl{\f0\fswiss MS Sans Serif;}{\f1\froman\fcharset2 Symbol;}{\f2\fswiss\fcharset1 Arial;}{\f3\fswiss\fcharset1 Arial;}{\f4\froman Times-Roman;}{\f5\fswiss\fprq2 System;}{\f6\fmodern Courier;}}
{\colortbl\red0\green0\blue0;\red0\green0\blue255;\red128\green0\blue0;\red0\green128\blue0;}
\deflang1033\pard\plain\f3\fs32\cf1\b ISCOL1
\par \plain\f3\fs20 
\par \plain\f6\fs24 ISCOL1 \plain\f4\fs24 First column for transport.
\par 
\par Data set \plain\f4\fs24\cf3\strike 3\plain\f4\fs24\cf2 \{linkTarget=Main3\}\plain\f4\fs24  of the \plain\f4\fs24\cf3\strike Main MOC3D Package Input (MOC)\plain\f4\fs24\cf2 \{linkID=80\}\plain\f4\fs24 .
\par 
\par See also: \plain\f4\fs24\cf3\strike Notes on Transport Subgrid\plain\f4\fs24\cf2 \{linkID=170\}
\par \plain\f3\fs20 
\par 
\par }
160
Scribble160
ISCOL2



general:000160
Writing



FALSE
12
{\rtf1\ansi\deff0\deftab720{\fonttbl{\f0\fswiss MS Sans Serif;}{\f1\froman\fcharset2 Symbol;}{\f2\fswiss\fcharset1 Arial;}{\f3\fswiss\fcharset1 Arial;}{\f4\froman Times-Roman;}{\f5\fswiss\fprq2 System;}{\f6\fmodern Courier;}}
{\colortbl\red0\green0\blue0;\red0\green0\blue255;\red128\green0\blue0;\red0\green128\blue0;}
\deflang1033\pard\plain\f3\fs32\cf1\b ISCOL2
\par \plain\f3\fs20 
\par \plain\f6\fs24 ISCOL2 \plain\f4\fs24 Last column for transport.
\par 
\par Data set \plain\f4\fs24\cf3\strike 3\plain\f4\fs24\cf2 \{linkTarget=Main3\}\plain\f4\fs24  of the \plain\f4\fs24\cf3\strike Main MOC3D Package Input (MOC)\plain\f4\fs24\cf2 \{linkID=80\}\plain\f4\fs24 .
\par 
\par See also: \plain\f4\fs24\cf3\strike Notes on Transport Subgrid\plain\f4\fs24\cf2 \{linkID=170\}
\par \plain\f3\fs20 
\par 
\par }
170
Scribble170
Notes on Transport Subgrid



general:000170
Writing



FALSE
9
{\rtf1\ansi\deff0\deftab720{\fonttbl{\f0\fswiss MS Sans Serif;}{\f1\froman\fcharset2 Symbol;}{\f2\fswiss\fcharset1 Arial;}{\f3\froman Times-Roman;}{\f4\froman\fcharset1 Times New Roman;}{\f5\fswiss\fcharset1 Arial;}{\f6\froman Times-Italic;}{\f7\fswiss\fprq2 System;}}
{\colortbl\red0\green0\blue0;\red128\green0\blue0;\red0\green0\blue255;\red0\green128\blue0;}
\deflang1033\pard\plain\f5\fs32\cf2\b Notes on Transport Subgrid
\par \plain\f5\fs20 
\par \plain\f3\fs22 Transport may be simulated within a subgrid, which is a "window" within the primary \plain\f6\fs22\i MODFLOW \plain\f3\fs22 grid used to simulate flow. Within the subgrid, the row and column spacing must be uniform, but thickness can vary from cell to cell and layer to layer. However, as discussed in the section reviewing \plain\f6\fs22\i MOC3D \plain\f3\fs22 assumptions, the range in thickness values (or product of thickness and porosity) should be as small as possible.
\par 
\par See also: \plain\f3\fs22\cf3\strike ISLAY1\plain\f3\fs22\cf1 \{linkID=110\}\plain\f3\fs22 , \plain\f3\fs22\cf3\strike ISLAY2\plain\f3\fs22\cf1 \{linkID=120\}\plain\f3\fs22 , \plain\f3\fs22\cf3\strike ISROW1\plain\f3\fs22\cf1 \{linkID=130\}\plain\f3\fs22 , \plain\f3\fs22\cf3\strike ISROW2\plain\f3\fs22\cf1 \{linkID=140\}\plain\f3\fs22  \plain\f3\fs22\cf3\strike ISCOL1\plain\f3\fs22\cf1 \{linkID=150\}\plain\f3\fs22 , \plain\f3\fs22\cf3\strike ISCOL2\plain\f3\fs22\cf1 \{linkID=160\}\plain\f3\fs22 
\par \plain\f3\fs22\cf3\strike MOC3D Arrray sizes\plain\f3\fs22\cf1 \{linkID=90\}\plain\f5\fs20 
\par }
180
Scribble180
NODISP



general:000180
Writing



FALSE
10
{\rtf1\ansi\deff0\deftab720{\fonttbl{\f0\fswiss MS Sans Serif;}{\f1\froman\fcharset2 Symbol;}{\f2\fswiss\fcharset1 Arial;}{\f3\fswiss\fcharset1 Arial;}{\f4\froman Times-Roman;}{\f5\fswiss\fprq2 System;}{\f6\fmodern Courier;}}
{\colortbl\red0\green0\blue0;\red0\green0\blue255;\red128\green0\blue0;\red0\green128\blue0;}
\deflang1033\pard\plain\f3\fs32\cf1\b NODISP
\par \plain\f3\fs20 
\par \plain\f6\fs24 NODISP \plain\f4\fs24 Flag for no dispersion (set NODISP=1 if no dispersion in problem; this will reduce storage allocation).
\par 
\par Data set \plain\f4\fs24\cf3\strike 4\plain\f4\fs24\cf2 \{linkTarget=Main4\}\plain\f4\fs24  of the \plain\f4\fs24\cf3\strike Main MOC3D Package Input (MOC)\plain\f4\fs24\cf2 \{linkID=80\}\plain\f4\fs24 .
\par 
\par \plain\f3\fs20 
\par }
190
Scribble190
DECAY



general:000190
Writing



FALSE
11
{\rtf1\ansi\deff0\deftab720{\fonttbl{\f0\fswiss MS Sans Serif;}{\f1\froman\fcharset2 Symbol;}{\f2\fswiss\fcharset1 Arial;}{\f3\fswiss\fcharset1 Arial;}{\f4\fnil Symbol;}{\f5\froman Times-Roman;}{\f6\fswiss\fprq2 System;}{\f7\fmodern Courier;}{\f8\froman Times-Italic;}}
{\colortbl\red0\green0\blue0;\red0\green0\blue255;\red128\green0\blue0;\red0\green128\blue0;}
\deflang1033\pard\plain\f3\fs32\cf1\b DECAY
\par \plain\f3\fs20 
\par \plain\f7\fs24 DECAY \plain\f5\fs24 First-order decay rate [1/T] (DECAY=0.0 indicates no decay occurs).
\par 
\par \plain\f5\fs22 The decay rate (\plain\f4\fs22 l\plain\f5\fs22 ) is related to the half life (\plain\f8\fs22\i t\plain\f5\fs16 1/2 \plain\f5\fs22 ) of a constituent by \plain\f4\fs22 l \plain\f5\fs22 = (ln 2)/\plain\f8\fs22\i t\plain\f5\fs16 1/2 \plain\f5\fs22 .
\par \plain\f3\fs20 
\par \plain\f5\fs24 Data set \plain\f5\fs24\cf3\strike 4\plain\f5\fs24\cf2 \{linkTarget=Main4\}\plain\f5\fs24  of the \plain\f5\fs24\cf3\strike Main MOC3D Package Input (MOC)\plain\f5\fs24\cf2 \{linkID=80\}\plain\f5\fs24 .
\par \plain\f3\fs20 
\par }
200
Scribble200
DIFFUS 



general:000200
Writing



FALSE
12