HelpScribble project file.
8
Yrbaneq S. Xbavxbj-050Q35
0
1
Lake Package and MT3D Help



TRUE


1
BrowseButtons()
0
FALSE
102
15000
Scribble15000
Stresses 3 Tab




Writing



FALSE
17
{\rtf1\ansi\deff0\deftab720{\fonttbl{\f0\fswiss MS Sans Serif;}{\f1\froman\fcharset2 Symbol;}{\f2\fswiss\fcharset1 Arial;}{\f3\froman\fcharset1 Times New Roman;}{\f4\fswiss\fcharset1 Arial;}}
{\colortbl\red0\green0\blue0;\red128\green0\blue0;\red0\green0\blue255;\red0\green128\blue0;}
\deflang1033\pard\plain\f4\fs32\cf2\b Stresses 3 Tab
\par \plain\f4\fs20 
\par \plain\f3\fs24\cf3\strike LAK CheckBox\plain\f3\fs24\cf1 \{linkID=15060\}
\par \plain\f3\fs24\cf3\strike Steady Stress : Lake\plain\f3\fs24\cf1 \{linkID=15070\}
\par \plain\f3\fs24\cf3\strike Number of sub-time-steps for simulating lakes in transient model\plain\f3\fs24\cf1 \{linkID=15080\}
\par \plain\f3\fs24\cf3\strike Maximum number of inflow or outflow stream segments for any lake\plain\f3\fs24\cf1 \{linkID=15090\}
\par \plain\f3\fs24\cf3\strike Maximum number of equations used to define stage discharge relationship\plain\f3\fs24\cf1 \{linkID=15100\}
\par \plain\f3\fs24\cf3\strike Method for calculating conductance of the lakebed on bottom of lake\plain\f3\fs24\cf1 \{linkID=15110\}
\par \plain\f3\fs24\cf3\strike Method for calculating conductance of the lakebed on sides of lake\plain\f3\fs24\cf1 \{linkID=15120\}
\par \plain\f3\fs24\cf3\strike Print Lake stage and budget in separate file CheckBox\plain\f3\fs24\cf1 \{linkID=15130\}
\par 
\par 
\par \plain\f3\fs24 See also:
\par \plain\f3\fs24\cf3\strike HSI GeoTrans Lake Package\plain\f3\fs24\cf1 \{linkID=15290\}\plain\f4\fs20 
\par }
15060
Scribble15060
LAK checkbox
LAK


lakenonspatialdata:000010
Writing



FALSE
11
{\rtf1\ansi\deff0\deftab720{\fonttbl{\f0\fswiss MS Sans Serif;}{\f1\froman\fcharset2 Symbol;}{\f2\fswiss\fcharset1 Arial;}{\f3\fswiss\fprq2 System;}{\f4\fswiss\fcharset1 Arial;}{\f5\froman\fcharset1 Times New Roman;}}
{\colortbl\red0\green0\blue0;\red0\green0\blue255;\red0\green128\blue0;\red128\green0\blue0;}
\deflang1033\pard\plain\f4\fs32\cf1\b LAK checkbox
\par \plain\f4\fs20 
\par \plain\f5\fs24 Select this check box to activate the HSI GeoTrans Lake package (version 2.2).
\par 
\par See also:
\par \plain\f5\fs24\cf2\strike Choosing Stress Packages\plain\f5\fs24\cf3 \{link=Scribble190@MODFLOW.hlp\}\plain\f5\fs24 
\par \plain\f4\fs20 
\par 
\par }
15070
Scribble15070
Steady Stress : Lake
Steady Stress : Lake


lakenonspatialdata:000020
Writing



FALSE
8
{\rtf1\ansi\deff0\deftab720{\fonttbl{\f0\fswiss MS Sans Serif;}{\f1\froman\fcharset2 Symbol;}{\f2\fswiss\fcharset1 Arial;}{\f3\fswiss\fcharset1 Arial;}{\f4\fswiss\fprq2 System;}{\f5\froman\fcharset1 Times New Roman;}}
{\colortbl\red0\green0\blue0;\red0\green0\blue255;}
\deflang1033\pard\plain\f3\fs32\cf1\b Steady Stress : Lake
\par \plain\f3\fs20 
\par \plain\f5\fs24 Select "Steady stress (0)" to use the same stresses throughout the simulation. Parameters for later stress periods will be created but not used. 
\par 
\par Select "Time variable stress (1)" to use a different stress for each stress period.\plain\f3\fs20 
\par }
15080
Scribble15080
Number of sub-time-steps for simulating lakes in transient model
Number of sub-time-steps for simulating lakes in transient mode


lakenonspatialdata:000030
Writing



FALSE
6
{\rtf1\ansi\deff0\deftab720{\fonttbl{\f0\fswiss MS Sans Serif;}{\f1\froman\fcharset2 Symbol;}{\f2\fswiss\fcharset1 Arial;}{\f3\froman\fcharset1 Times New Roman;}{\f4\fswiss\fcharset1 Arial;}{\f5\fswiss\fprq2 System;}}
{\colortbl\red0\green0\blue0;\red0\green0\blue255;\red128\green0\blue0;}
\deflang1033\pard\plain\f4\fs32\cf1\b Number of sub-time-steps for simulating lakes in transient model
\par \plain\f4\fs20 
\par \plain\f3\fs24 Because the lake stage typically changes much more rapidly than do groundwater heads, the changes in lake stage are simulated using multiple time steps within each time step used to simulate groundwater flow.\plain\f4\fs20 
\par }
15090
Scribble15090
Maximum number of inflow or outflow stream segments for any lake
Maximum number of inflow or outflow stream segments for any lake


lakenonspatialdata:000050
Writing



FALSE
7
{\rtf1\ansi\deff0\deftab720{\fonttbl{\f0\fswiss MS Sans Serif;}{\f1\froman\fcharset2 Symbol;}{\f2\fswiss\fcharset1 Arial;}{\f3\fswiss\fcharset1 Arial;}{\f4\froman\fcharset1 Times New Roman;}}
{\colortbl\red0\green0\blue0;\red0\green0\blue255;}
\deflang1033\pard\plain\f3\fs32\cf1\b Maximum number of inflow or outflow stream segments for any lake
\par 
\par \plain\f4\fs24 Set the maximum number of streams flowing either into or out of a lack in this edit box. For example if you had three inflow streams and one outflow stream, you would enter a 3. If you had two inflow streams and four outflow streams, you would enter a 4.\plain\f3\fs20 
\par \plain\f3\fs20 
\par }
15100
Scribble15100
Maximum number of equations used to define stage discharge relationship
Maximum number of equations used to define stage discharge relationship


lakenonspatialdata:000040
Writing



FALSE
13
{\rtf1\ansi\deff0\deftab720{\fonttbl{\f0\fswiss MS Sans Serif;}{\f1\froman\fcharset2 Symbol;}{\f2\fswiss\fcharset1 Arial;}{\f3\fswiss\fcharset1 Arial;}{\f4\froman\fcharset1 Times New Roman;}}
{\colortbl\red0\green0\blue0;\red0\green0\blue255;}
\deflang1033\pard\plain\f3\fs32\cf1\b Maximum number of equations used to define stage discharge relationship
\par \plain\f3\fs20 
\par \plain\f4\fs24 The outflow from a lake into a stream can be determined by one or more series of equations. These equations have the form:
\par 
\par Outflow = CONST * (STAGE - ELEV)^ EXPNT
\par 
\par The equation that is used depends on the "CUTOFF". The lake package will use the first equation for which the stage exceeds "CUTOFF". If the stage does not exceed "CUTOFF" for any equation, the dischage will be 0.
\par 
\par Set the maximum number of equations you wish to use in any outflow stream segments in this box. (You are not required to use all the equations in all the outflow stream segments but parametes will be available for you to use if you so choose.)\plain\f3\fs20 
\par 
\par }
15110
Scribble15110
Method for calculating conductance of the lakebed on bottom of lake
Method for calculating conductance of the lakebed on bottom of lake


lakenonspatialdata:000060
Writing



FALSE
15
{\rtf1\ansi\deff0\deftab720{\fonttbl{\f0\fswiss MS Sans Serif;}{\f1\froman\fcharset2 Symbol;}{\f2\fswiss\fcharset1 Arial;}{\f3\fswiss\fcharset1 Arial;}{\f4\fswiss\fprq2 System;}{\f5\froman\fcharset1 Times New Roman;}{\f6\fswiss\fcharset1 MS Sans Serif;}}
{\colortbl\red0\green0\blue0;\red0\green0\blue255;}
\deflang1033\pard\plain\f3\fs32\cf1\b Method for calculating conductance of the lakebed on bottom of lake
\par \plain\f3\fs20 
\par \plain\f5\fs24 This gives you a choice of how the conductance should be calculated for the cells beneath a lake.
\par 
\par Use lakebed thickness only
\par \tab This means that the lakebed conductance will be calculated using the hydraulic conductivity of the lakebed sediments and the their thickness. This is appropriate if the lakebed sediments have a sufficiently low hydraulic conductivity that they will dominant the conductance term.
\par 
\par Use lakebed thickness and cell thickness
\par \tab This means that the lakebed conductance will be calculated using the hydraulic conductivity of the lakebed sediments and the their thickness and also the hydraulic conductivity of the cell linked to the lake and it's thickness. This is appropriate if the lakebed sediments do not have a sufficiently low hydraulic conductivity that they will dominant the conductance term.
\par 
\par  See the discussion of "VCONT" (Vertical conductance) in the MODFLOW documentation for the equations used to specify the conductance.\plain\f6\fs20 
\par \plain\f3\fs20 
\par }
15120
Scribble15120
Method for calculating conductance of the lakebed on sides of lake
Method for calculating conductance of the lakebed on sides of lake


lakenonspatialdata:000070
Writing



FALSE
22
{\rtf1\ansi\deff0\deftab720{\fonttbl{\f0\fswiss MS Sans Serif;}{\f1\froman\fcharset2 Symbol;}{\f2\fswiss\fcharset1 Arial;}{\f3\fswiss\fcharset1 Arial;}{\f4\fswiss\fprq2 System;}{\f5\froman\fcharset1 Times New Roman;}}
{\colortbl\red0\green0\blue0;\red0\green0\blue255;}
\deflang1033\pard\plain\f3\fs32\cf1\b Method for calculating conductance of the lakebed on sides of lake
\par \plain\f3\fs20 
\par \plain\f5\fs24 Use lakebed thickness only
\par Use cell width only
\par Use lakebed thickness and cell width
\par 
\par This gives you a choice of how the conductance should be calculated for the cells next to a lake.
\par 
\par Use lakebed thickness only
\par \tab This means that the lakebed conductance will be calculated using the hydraulic conductivity of the lakebed sediments and the their thickness. This is appropriate if the lakebed sediments have a sufficiently low hydraulic conductivity that they will dominant the conductance term.
\par 
\par Use cell width only
\par \tab This means that the hydraulic conductivity of the cell and it's width will be used to calculate the conductance. This is appropriate if the cells next to the lake are in direct connection with the lake without being separated from the lake by lake bed sediments. This was the assumption used in the original example for Chenge and Anderson (1993; Ground Water, 31: 929-933). If the lake sediments are thin, this may be appropriate even if the sediments have a low hydraulic conductivity because the large size of the cell in comparison with the lake sediments may cause the effect of the lake sediments on the conductance to be small.
\par 
\par Use lakebed thickness and cell thickness
\par \tab This means that the lakebed conductance will be calculated using the hydraulic conductivity of the lakebed sediments and the their thickness and also the hydraulic conductivity of the cell linked to the lake and it's width. This is appropriate if the lakebed sediments do not have a sufficiently low hydraulic conductivity that they will dominant the conductance term but it is large enough to have a significant effect on the conductance.
\par 
\par  See the discussion of "VCONT" (Vertical conductance) in the MODFLOW documentation for the equations used to specify the conductance.
\par \plain\f3\fs20 
\par }
15130
Scribble15130
Print Lake stage and budget in separate file CheckBox
Print Lake stage and budget in separate file


lakenonspatialdata:000080
Writing



FALSE
6
{\rtf1\ansi\deff0\deftab720{\fonttbl{\f0\fswiss MS Sans Serif;}{\f1\froman\fcharset2 Symbol;}{\f2\fswiss\fcharset1 Arial;}{\f3\fswiss\fcharset1 Arial;}{\f4\fswiss\fprq2 System;}{\f5\froman\fcharset1 Times New Roman;}}
{\colortbl\red0\green0\blue0;\red0\green0\blue255;}
\deflang1033\pard\plain\f3\fs32\cf1\b Print Lake stage and budget in separate file CheckBox
\par \plain\f3\fs20 
\par \plain\f5\fs24 If you check this check box, the lake stage and budget will be printed in a file with the extension "lbd".\plain\f3\fs20 
\par }
15140
Scribble15140
SPG checkbox



lakenonspatialdata:000090
Writing



FALSE
10
{\rtf1\ansi\deff0\deftab720{\fonttbl{\f0\fswiss MS Sans Serif;}{\f1\froman\fcharset2 Symbol;}{\f2\fswiss\fcharset1 Arial;}{\f3\fswiss\fprq2 System;}{\f4\froman\fcharset1 Times New Roman;}{\f5\fswiss\fcharset1 Arial;}}
{\colortbl\red0\green0\blue0;\red128\green0\blue0;\red0\green128\blue0;\red0\green0\blue255;}
\deflang1033\pard\plain\f5\fs32\cf3\b SPG checkbox
\par \plain\f5\fs20 
\par \plain\f4\fs24 Select this check box to activate the Seepage package.
\par 
\par See also:
\par \plain\f4\fs24\cf2\strike Choosing Stress Packages\plain\f4\fs24\cf1 \{link=Scribble190@MODFLOW.hlp\}\plain\f4\fs24 
\par \plain\f5\fs20 
\par }
15150
Scribble15150
Use Alternate Export Templates



lakenonspatialdata:000100
Writing



FALSE
14
{\rtf1\ansi\deff0\deftab720{\fonttbl{\f0\fswiss MS Sans Serif;}{\f1\froman\fcharset2 Symbol;}{\f2\fswiss\fcharset1 Arial;}{\f3\fswiss\fprq2 System;}{\f4\fswiss\fcharset1 Arial;}{\f5\froman\fcharset1 Times New Roman;}}
{\colortbl\red0\green0\blue0;\red0\green0\blue255;\red128\green0\blue0;\red0\green128\blue0;}
\deflang1033\pard\plain\f4\fs32\cf1\b Use Alternate Export Templates
\par \plain\f4\fs20 
\par \plain\f5\fs24\cf3\strike Stresses 3 Tab\plain\f5\fs24\cf2 \{linkID=15000\}\plain\f5\fs24 
\par \plain\f4\fs20 
\par \plain\f5\fs24 If one of the "alternate export template" check box is checked an alternative export template is used for the specified package.  This alternative template allows you to set the value of all parameters in the layer using expressions. 
\par 
\par On the \plain\f5\fs24\cf3\strike Line Seepage Unit[i]\plain\f5\fs24\cf2 \{linkID=16120\}\plain\f5\fs24  layers, there will be one seepage boundary created in each cell in which there are objects.  The elevation will be evaluated at the block center.  
\par 
\par On the \plain\f5\fs24\cf3\strike Area Seepage Unit[i]\plain\f5\fs24\cf2 \{linkID=16130\}\plain\f5\fs24  layers, there will be one seepage boundary created in each cell in which the conductance parameter is a number (rather than $N/A) at the block center.  The elevation will be evaluated at the block center.  
\par 
\par \plain\f4\fs20 
\par }
15290
Scribble15290
HSI GeoTrans Lake Package



lakespatialdata:000010
Writing



FALSE
19
{\rtf1\ansi\deff0\deftab720{\fonttbl{\f0\fswiss MS Sans Serif;}{\f1\froman\fcharset2 Symbol;}{\f2\fswiss\fcharset1 Arial;}{\f3\fswiss\fcharset1 Arial;}{\f4\froman\fcharset1 Times New Roman;}{\f5\fswiss\fprq2 System;}}
{\colortbl\red0\green0\blue0;\red0\green0\blue255;\red0\green128\blue0;\red128\green0\blue0;}
\deflang1033\pard\plain\f3\fs32\cf1\b HSI GeoTrans Lake Package
\par \plain\f3\fs20 
\par \plain\f4\fs24 The \plain\f4\fs24\cf1\strike HSI GeoTrans\plain\f4\fs24\cf3 \{link=*! ExecFile("http://www.hsigeotrans.com/")\}\plain\f4\fs24  (\plain\f4\fs24\cf2\strike Council, 1998\plain\f4\fs24\cf3 \{linkID=19000\}\plain\f4\fs24 ) is based on an earlier Lake package (\plain\f4\fs24\cf2\strike Cheng and Anderson 1993, 1994; Anderson and Cheng 1993\plain\f4\fs24\cf3 \{linkID=19000\}\plain\f4\fs24 ). It was developed in conjunction with an application for a minining permit for the proposed Crandon Mine in Wisconsin.\plain\f4\fs24 
\par 
\par The purpose of the Lake package is to allow MODFLOW to include lakes whose stage changes due to inflow or outflow. In this it resembles the Reservoir package. However, in the Reservoir package, the modeller sets the stage for each stress period whereas in the Lake package the stage is calculated based on onflows and outflows.
\par 
\par Inflow to the lake can come in several forms: rainfall, runoff, stream flow and groundwater discharge. Outflow from the lake can be in the form of evapotranspiration, stream flow or groundwater recharge. The Lake package can simulate all of these.
\par 
\par In the GeoTrans Lake package as well as \plain\f4\fs24 Cheng and Anderson's Lake package, the lake volume is represented by inactive cells in the model.  Cells that lie on the interface between the lake and the aquifer system are designated as "lake cells".\plain\f4\fs24  Normally, when using this interface, you don't need to worry about that. However, if you look at the MODFLOW input files you will see that the areas where you have lakes are inactive cells. Because of this, the post processor will not plot heads or drawdowns for the lake centers but only for the cells at the edges of the lakes.
\par 
\par For documentation of the Lake package, see HSI GeoTrans \plain\f4\fs24\cf1\strike http://hsigeotrans.com/\plain\f4\fs24\cf3 \{link=*! ExecFile("http://hsigeotrans.com/")\}\plain\f4\fs24 
\par 
\par See also: 
\par \plain\f4\fs24\cf1\strike Wisconsin Department of Natural Resources\plain\f4\fs24\cf3 \{link=*! ExecFile("ftp://www.dnr.state.wi.us/Crandon/MODFLOW/MODFLOW96_98/")\}\plain\f4\fs24 
\par \plain\f4\fs24\cf1\strike Army Corps of Engineers\plain\f4\fs24\cf3 \{link=*! ExecFile("ftp://ftp.mvp.usace.army.mil/priv/Crandon/grdwatermodel/")\}\plain\f3\fs20 
\par \plain\f4\fs24\cf1\strike What is the Status of the DNR Review of the Proposed Crandon Mine?\plain\f4\fs24\cf3 \{link=*! ExecFile("http://www.dnr.state.wi.us/org/es/science/mining/mine-sta/index.htm")\}\plain\f3\fs20 
\par }
15300
Scribble15300
Lake Unit[i]



lakespatialdata:000020
Writing



FALSE
6
{\rtf1\ansi\deff0\deftab720{\fonttbl{\f0\fswiss MS Sans Serif;}{\f1\froman\fcharset2 Symbol;}{\f2\fswiss\fcharset1 Arial;}{\f3\fswiss\fcharset1 Arial;}{\f4\fswiss\fprq2 System;}{\f5\froman\fcharset1 Times New Roman;}}
{\colortbl\red0\green0\blue0;\red0\green0\blue255;}
\deflang1033\pard\plain\f3\fs32\cf1\b Lake Unit[i]
\par \plain\f3\fs20 
\par \plain\f5\fs24 Use the Lake Unit layers to define the positions of lakes. Draw a closed contour in the geologic unit containing the lake bottom. The lake will be defined as present in that unit and all units above it. \plain\f3\fs20 
\par }
15310
Scribble15310
Lake Name



lakespatialdata:000030
Writing



FALSE
8
{\rtf1\ansi\deff0\deftab720{\fonttbl{\f0\fswiss MS Sans Serif;}{\f1\froman\fcharset2 Symbol;}{\f2\fswiss\fcharset1 Arial;}{\f3\fswiss\fcharset1 Arial;}{\f4\fswiss\fprq2 System;}{\f5\froman\fcharset1 Times New Roman;}}
{\colortbl\red0\green0\blue0;\red128\green0\blue0;\red0\green0\blue255;\red0\green128\blue0;}
\deflang1033\pard\plain\f3\fs32\cf2\b Lake Name
\par \plain\f3\fs20 
\par \plain\f5\fs24 Name of the lake used to identify it in the MODFLOW input and output
\par 
\par This is on the \plain\f5\fs24\cf3\strike Lake Unit[i]\plain\f5\fs24\cf1 \{linkID=15300\}\plain\f5\fs24  Layer.\plain\f3\fs20 
\par }
15320
Scribble15320
Lake Number



lakespatialdata:000040
Writing



FALSE
8
{\rtf1\ansi\deff0\deftab720{\fonttbl{\f0\fswiss MS Sans Serif;}{\f1\froman\fcharset2 Symbol;}{\f2\fswiss\fcharset1 Arial;}{\f3\fswiss\fcharset1 Arial;}{\f4\fswiss\fprq2 System;}{\f5\froman\fcharset1 Times New Roman;}}
{\colortbl\red0\green0\blue0;\red128\green0\blue0;\red0\green0\blue255;\red0\green128\blue0;}
\deflang1033\pard\plain\f3\fs32\cf2\b Lake Number
\par \plain\f3\fs20 
\par \plain\f5\fs24 The lake number is used internally by the preprocessor to identify the lake. Each lake should have a unique number.
\par 
\par This is on the \plain\f5\fs24\cf3\strike Lake Unit[i]\plain\f5\fs24\cf1 \{linkID=15300\}\plain\f5\fs24  Layer.\plain\f3\fs20 
\par }
15330
Scribble15330
Simulation mode



lakespatialdata:000050
Writing



FALSE
11
{\rtf1\ansi\deff0\deftab720{\fonttbl{\f0\fswiss MS Sans Serif;}{\f1\froman\fcharset2 Symbol;}{\f2\fswiss\fcharset1 Arial;}{\f3\fswiss\fcharset1 Arial;}{\f4\fswiss\fprq2 System;}{\f5\froman\fcharset1 Times New Roman;}}
{\colortbl\red0\green0\blue0;\red0\green128\blue0;\red0\green0\blue255;\red128\green0\blue0;}
\deflang1033\pard\plain\f3\fs32\cf2\b Simulation mode
\par \plain\f3\fs20 
\par \plain\f5\fs24 0 = Fixed Stage
\par 1 = Interpolated stage
\par 2 = Steady-state
\par 3 = Transient
\par 
\par This is on the \plain\f5\fs24\cf1\strike Lake Unit[i]\plain\f5\fs24\cf3 \{linkID=15300\}\plain\f5\fs24  Layer.\plain\f3\fs20 
\par }
15340
Scribble15340
Starting Stage



lakespatialdata:000060
Writing



FALSE
8
{\rtf1\ansi\deff0\deftab720{\fonttbl{\f0\fswiss MS Sans Serif;}{\f1\froman\fcharset2 Symbol;}{\f2\fswiss\fcharset1 Arial;}{\f3\fswiss\fcharset1 Arial;}{\f4\fswiss\fprq2 System;}{\f5\froman\fcharset1 Times New Roman;}}
{\colortbl\red0\green0\blue0;\red128\green0\blue0;\red0\green128\blue0;\red0\green0\blue255;}
\deflang1033\pard\plain\f3\fs32\cf3\b Starting Stage
\par \plain\f3\fs20 
\par \plain\f5\fs24 Lake stage at the beginning of the model
\par 
\par This is on the \plain\f5\fs24\cf2\strike Lake Unit[i]\plain\f5\fs24\cf1 \{linkID=15300\}\plain\f5\fs24  Layer.\plain\f3\fs20 
\par }
15350
Scribble15350
Max Iterations



lakespatialdata:000070
Writing



FALSE
8
{\rtf1\ansi\deff0\deftab720{\fonttbl{\f0\fswiss MS Sans Serif;}{\f1\froman\fcharset2 Symbol;}{\f2\fswiss\fcharset1 Arial;}{\f3\fswiss\fcharset1 Arial;}{\f4\fswiss\fprq2 System;}{\f5\froman\fcharset1 Times New Roman;}}
{\colortbl\red0\green0\blue0;\red128\green0\blue0;\red0\green0\blue255;\red0\green128\blue0;}
\deflang1033\pard\plain\f3\fs32\cf2\b Max Iterations
\par \plain\f3\fs20 
\par \plain\f5\fs24 Maximumn number of interations for stage solver.
\par 
\par This is on the \plain\f5\fs24\cf3\strike Lake Unit[i]\plain\f5\fs24\cf1 \{linkID=15300\}\plain\f5\fs24  Layer.\plain\f3\fs20 
\par }
15360
Scribble15360
Stage Convergence Criterion



lakespatialdata:000080
Writing



FALSE
8
{\rtf1\ansi\deff0\deftab720{\fonttbl{\f0\fswiss MS Sans Serif;}{\f1\froman\fcharset2 Symbol;}{\f2\fswiss\fcharset1 Arial;}{\f3\fswiss\fcharset1 Arial;}{\f4\fswiss\fprq2 System;}{\f5\froman\fcharset1 Times New Roman;}}
{\colortbl\red0\green0\blue0;\red0\green128\blue0;\red0\green0\blue255;\red128\green0\blue0;}
\deflang1033\pard\plain\f3\fs32\cf2\b Stage Convergence Criterion
\par \plain\f3\fs20 
\par \plain\f5\fs24 Stage solver termination criterion (change in stage in 1 iteration.
\par 
\par This is on the \plain\f5\fs24\cf1\strike Lake Unit[i]\plain\f5\fs24\cf3 \{linkID=15300\}\plain\f5\fs24  Layer.\plain\f3\fs20 
\par }
15370
Scribble15370
Maximum Lake Stage



lakespatialdata:000090
Writing



FALSE
8
{\rtf1\ansi\deff0\deftab720{\fonttbl{\f0\fswiss MS Sans Serif;}{\f1\froman\fcharset2 Symbol;}{\f2\fswiss\fcharset1 Arial;}{\f3\fswiss\fcharset1 Arial;}{\f4\fswiss\fprq2 System;}{\f5\froman\fcharset1 Times New Roman;}}
{\colortbl\red0\green0\blue0;\red0\green128\blue0;\red0\green0\blue255;\red128\green0\blue0;}
\deflang1033\pard\plain\f3\fs32\cf2\b Maximum Lake Stage
\par \plain\f3\fs20 
\par \plain\f5\fs24 Maximum lake stage
\par 
\par This is on the \plain\f5\fs24\cf1\strike Lake Unit[i]\plain\f5\fs24\cf3 \{linkID=15300\}\plain\f5\fs24  Layer.\plain\f3\fs20 
\par }
15380
Scribble15380
Lakebed hydraulic conductivity



lakespatialdata:000100
Writing



FALSE
8
{\rtf1\ansi\deff0\deftab720{\fonttbl{\f0\fswiss MS Sans Serif;}{\f1\froman\fcharset2 Symbol;}{\f2\fswiss\fcharset1 Arial;}{\f3\fswiss\fcharset1 Arial;}{\f4\fswiss\fprq2 System;}{\f5\froman\fcharset1 Times New Roman;}}
{\colortbl\red0\green0\blue0;\red128\green0\blue0;\red0\green0\blue255;\red0\green128\blue0;}
\deflang1033\pard\plain\f3\fs32\cf2\b Lakebed hydraulic conductivity
\par \plain\f3\fs20 
\par \plain\f5\fs24 Lakebed hydraulic conductivity
\par 
\par This is on the \plain\f5\fs24\cf3\strike Lake Unit[i]\plain\f5\fs24\cf1 \{linkID=15300\}\plain\f5\fs24  Layer.\plain\f3\fs20 
\par }
15390
Scribble15390
Lakebed top elev



lakespatialdata:000110
Writing



FALSE
8
{\rtf1\ansi\deff0\deftab720{\fonttbl{\f0\fswiss MS Sans Serif;}{\f1\froman\fcharset2 Symbol;}{\f2\fswiss\fcharset1 Arial;}{\f3\fswiss\fcharset1 Arial;}{\f4\fswiss\fprq2 System;}{\f5\froman\fcharset1 Times New Roman;}}
{\colortbl\red0\green0\blue0;\red128\green0\blue0;\red0\green0\blue255;\red0\green128\blue0;}
\deflang1033\pard\plain\f3\fs32\cf2\b Lakebed top elev
\par \plain\f3\fs20 
\par \plain\f5\fs24 Lakebed top elevation
\par 
\par This is on the \plain\f5\fs24\cf3\strike Lake Unit[i]\plain\f5\fs24\cf1 \{linkID=15300\}\plain\f5\fs24  Layer.\plain\f3\fs20 
\par }
15400
Scribble15400
Lakebed bottom elev



lakespatialdata:000120
Writing



FALSE
8
{\rtf1\ansi\deff0\deftab720{\fonttbl{\f0\fswiss MS Sans Serif;}{\f1\froman\fcharset2 Symbol;}{\f2\fswiss\fcharset1 Arial;}{\f3\fswiss\fcharset1 Arial;}{\f4\fswiss\fprq2 System;}{\f5\froman\fcharset1 Times New Roman;}}
{\colortbl\red0\green0\blue0;\red0\green128\blue0;\red0\green0\blue255;\red128\green0\blue0;}
\deflang1033\pard\plain\f3\fs32\cf2\b Lakebed bottom elev
\par \plain\f3\fs20 
\par \plain\f5\fs24 Lakebed bottom elevation
\par 
\par This is on the \plain\f5\fs24\cf1\strike Lake Unit[i]\plain\f5\fs24\cf3 \{linkID=15300\}\plain\f5\fs24  Layer.\plain\f3\fs20 
\par }
15410
Scribble15410
Input Stream[i]



lakespatialdata:000130
Writing



FALSE
10
{\rtf1\ansi\deff0\deftab720{\fonttbl{\f0\fswiss MS Sans Serif;}{\f1\froman\fcharset2 Symbol;}{\f2\fswiss\fcharset1 Arial;}{\f3\froman\fcharset1 Times New Roman;}{\f4\fswiss\fcharset1 Arial;}}
{\colortbl\red0\green0\blue0;\red0\green128\blue0;\red0\green0\blue255;\red128\green0\blue0;}
\deflang1033\pard\plain\f4\fs32\cf2\b Input Stream[i]
\par \plain\f4\fs20 
\par \plain\f3\fs24 Inflow stream segment i where i = 1, 2, 3, ....
\par 
\par See \plain\f3\fs24 MODFLOW Help for Stream Unit[i].Segment Number\plain\f3\fs24\cf3 
\par 
\par \plain\f3\fs24 This is on the \plain\f3\fs24\cf1\strike Lake Unit[i]\plain\f3\fs24\cf3 \{linkID=15300\}\plain\f3\fs24  Layer.\plain\f4\fs20 
\par }
15420
Scribble15420
Output Stream[i]



lakespatialdata:000140
Writing



FALSE
10
{\rtf1\ansi\deff0\deftab720{\fonttbl{\f0\fswiss MS Sans Serif;}{\f1\froman\fcharset2 Symbol;}{\f2\fswiss\fcharset1 Arial;}{\f3\froman\fcharset1 Times New Roman;}{\f4\fswiss\fcharset1 Arial;}{\f5\fswiss\fprq2 System;}}
{\colortbl\red0\green0\blue0;\red0\green0\blue255;\red128\green0\blue0;\red0\green128\blue0;}
\deflang1033\pard\plain\f4\fs32\cf1\b Output Stream[i]
\par \plain\f4\fs20 
\par \plain\f3\fs24 Outflow stream segment i where i = 1, 2, 3, ....
\par 
\par See \plain\f3\fs24 MODFLOW Help for Stream Unit[i].Segment Number\plain\f3\fs24\cf2 
\par 
\par \plain\f3\fs24 This is on the \plain\f3\fs24\cf3\strike Lake Unit[i]\plain\f3\fs24\cf2 \{linkID=15300\}\plain\f3\fs24  Layer.\plain\f4\fs20 
\par }
15430
Scribble15430
Eq Cutoff[i][j]



lakespatialdata:000150
Writing



FALSE
12
{\rtf1\ansi\deff0\deftab720{\fonttbl{\f0\fswiss MS Sans Serif;}{\f1\froman\fcharset2 Symbol;}{\f2\fswiss\fcharset1 Arial;}{\f3\fswiss\fcharset1 Arial;}{\f4\fswiss\fprq2 System;}{\f5\froman\fcharset1 Times New Roman;}}
{\colortbl\red0\green0\blue0;\red0\green128\blue0;\red0\green0\blue255;\red128\green0\blue0;}
\deflang1033\pard\plain\f3\fs32\cf2\b Eq Cutoff[i][j]
\par \plain\f3\fs20 
\par \plain\f5\fs24 Lower stage limit of rating equation j 
\par \tab where j = 1 to 5 for 
\par \tab stream segment i where i = 1, 2, 3, ....
\par 
\par The equations must be in arranged in descending order according to the Eq Cutoff. (I.e. The equation with the largest cuttoff should come first.
\par 
\par This is on the \plain\f5\fs24\cf1\strike Lake Unit[i]\plain\f5\fs24\cf3 \{linkID=15300\}\plain\f5\fs24  Layer.\plain\f3\fs20 
\par }
15440
Scribble15440
Eq Const[i][j]



lakespatialdata:000160
Writing



FALSE
12
{\rtf1\ansi\deff0\deftab720{\fonttbl{\f0\fswiss MS Sans Serif;}{\f1\froman\fcharset2 Symbol;}{\f2\fswiss\fcharset1 Arial;}{\f3\fswiss\fcharset1 Arial;}{\f4\fswiss\fprq2 System;}{\f5\froman\fcharset1 Times New Roman;}}
{\colortbl\red0\green0\blue0;\red0\green128\blue0;\red0\green0\blue255;\red128\green0\blue0;}
\deflang1033\pard\plain\f3\fs32\cf2\b Eq Const[i][j]
\par \plain\f3\fs20 
\par \plain\f5\fs24 Rating equation constant of rating equation j 
\par \tab where j = 1 to 5 for 
\par \tab stream segment i where i = 1, 2, 3, ....
\par 
\par The equations must be in arranged in descending order according to the \plain\f5\fs24\cf1\strike Eq Cutoff\plain\f5\fs24\cf3 \{linkID=15430\}\plain\f5\fs24 . (I.e. The equation with the largest cuttoff should come first.
\par 
\par This is on the \plain\f5\fs24\cf1\strike Lake Unit[i]\plain\f5\fs24\cf3 \{linkID=15300\}\plain\f5\fs24  Layer.\plain\f3\fs20 
\par }
15450
Scribble15450
Eq Elev[i][j]



lakespatialdata:000170
Writing



FALSE
12
{\rtf1\ansi\deff0\deftab720{\fonttbl{\f0\fswiss MS Sans Serif;}{\f1\froman\fcharset2 Symbol;}{\f2\fswiss\fcharset1 Arial;}{\f3\fswiss\fcharset1 Arial;}{\f4\fswiss\fprq2 System;}{\f5\froman\fcharset1 Times New Roman;}}
{\colortbl\red0\green0\blue0;\red128\green0\blue0;\red0\green0\blue255;\red0\green128\blue0;}
\deflang1033\pard\plain\f3\fs32\cf2\b Eq Elev[i][j]
\par \plain\f3\fs20 
\par \plain\f5\fs24 Rating equation reference (outfall) elevation of rating equation j 
\par \tab where j = 1 to 5 for 
\par \tab stream segment i where i = 1, 2, 3, ....
\par 
\par The equations must be in arranged in descending order according to the \plain\f5\fs24\cf3\strike Eq Cutoff\plain\f5\fs24\cf1 \{linkID=15430\}\plain\f5\fs24 . (I.e. The equation with the largest cuttoff should come first.
\par 
\par This is on the \plain\f5\fs24\cf3\strike Lake Unit[i]\plain\f5\fs24\cf1 \{linkID=15300\}\plain\f5\fs24  Layer.\plain\f3\fs20 
\par }
15460
Scribble15460
Eq exponent[i][j]



lakespatialdata:000180
Writing



FALSE
12
{\rtf1\ansi\deff0\deftab720{\fonttbl{\f0\fswiss MS Sans Serif;}{\f1\froman\fcharset2 Symbol;}{\f2\fswiss\fcharset1 Arial;}{\f3\fswiss\fcharset1 Arial;}{\f4\fswiss\fprq2 System;}{\f5\froman\fcharset1 Times New Roman;}}
{\colortbl\red0\green0\blue0;\red128\green0\blue0;\red0\green0\blue255;\red0\green128\blue0;}
\deflang1033\pard\plain\f3\fs32\cf2\b Eq exponent[i][j]
\par \plain\f3\fs20 
\par \plain\f5\fs24 Rating equation exponent of rating equation j 
\par \tab where j = 1 to 5 for 
\par \tab stream segment i where i = 1, 2, 3, ....
\par 
\par The equations must be in arranged in descending order according to the \plain\f5\fs24\cf3\strike Eq Cutoff\plain\f5\fs24\cf1 \{linkID=15430\}\plain\f5\fs24 . (I.e. The equation with the largest cuttoff should come first.
\par 
\par This is on the \plain\f5\fs24\cf3\strike Lake Unit[i]\plain\f5\fs24\cf1 \{linkID=15300\}\plain\f5\fs24  Layer.\plain\f3\fs20 
\par }
15470
Scribble15470
Precipitation[i]



lakespatialdata:000190
Writing



FALSE
16
{\rtf1\ansi\deff0\deftab720{\fonttbl{\f0\fswiss MS Sans Serif;}{\f1\froman\fcharset2 Symbol;}{\f2\fswiss\fcharset1 Arial;}{\f3\fswiss\fcharset1 Arial;}{\f4\froman\fcharset1 Times New Roman;}{\f5\fswiss\fprq2 System;}}
{\colortbl\red0\green0\blue0;\red0\green0\blue255;\red128\green0\blue0;\red0\green128\blue0;}
\deflang1033\pard\plain\f3\fs32\cf1\b Precipitation[i]
\par \plain\f3\fs20 
\par \plain\f4\fs24 Precipitation rate 
\par \tab for stress period i where i = 1, 2, 3, ....
\par 