HelpScribble project file.
16
_vpuneq O. dvafgba-050Q35
0
2
MODFLOW GUI Help



TRUE

C:\PROGRA~1\JGsoft\HELPSC~1\Modflow,D:\PROGRA~1\JGsoft\HELPSC~1\MODFLOW,C:\PROGRA~1\JGsoft\HELPSC~1\Parser,D:\Program Files\JGsoft\HelpScribble\Modflow
1
BrowseButtons()
0
FALSE

FALSE
TRUE
16777215
0
16711680
8388736
255
TRUE
TRUE
TRUE
TRUE
150
50
600
500
TRUE
FALSE
1
FALSE
FALSE
Contents
%s Contents
Index
%s Index
Previous
Next
FALSE

1314
10
Scribble10
Things YOU need to know about Argus ONE
Nearest; Exact; Interpolation


nonspatial:000010
Writing



FALSE
34
{\rtf1\ansi\ansicpg1252\deff0\deflang1033{\fonttbl{\f0\fswiss Arial;}{\f1\froman\fprq2\fcharset0 Times New Roman;}{\f2\froman\fprq2 Times New Roman;}{\f3\froman Times New Roman;}{\f4\froman\fcharset0 Times New Roman;}}
{\colortbl ;\red0\green0\blue255;\red0\green128\blue0;\red128\green0\blue0;}
\viewkind4\uc1\pard\cf1\b\f0\fs32 Things YOU need to know about Argus ONE
\par \cf0\b0\fs20 
\par \f1\fs24 1. Expressions are one of the most powerful features of Argus ONE.  Learn to use them. See p. 135 of the Argus ONE Users' Guide.
\par 
\par 2. Learn to distinguish between values set by Contours and values set by Expressions.  If you double-click on a contour, a parameter value set by the contour will have a gray background as opposed to a white-background for values set by Expressions.  However, if you are editing a particular parameter value, it will always have a white background. (This can be a problem if there is only one parameter on a layer because there is no way to tell if a parameter has been overridden or not.)\f2 
\par 
\par \f1 3\f2 . Avoid changing anything that is locked without thoroughly understanding the internal operation of the MODFLOW GUI.  Failure to follow this rule is likely to lead to incorrect results.
\par 
\par \f1 4\f2 . Read the \cf2\b\strike\f3 Tips\cf3\strike0\{linkID=11250\} \cf0\b0\f2 and \cf2\b\strike\f3 Frequently Asked Questions\cf3\strike0\{linkID=11370\}\cf0\b0 .\f2 
\par 
\par \f1 5\f2 . It is important for \b you\b0  to decide the method that Argus ONE will use to interpret your data.  You should read the section of the Argus ONE manual entitled "Contours Interpretation Methods".  This is in Part 2: \b Working with Information Layers\b0 , p. 116-119.  You need to know the difference between the \b Nearest, Exact \b0 and\b  Interpolation \b0 methods.  You should also read the sections entitled \b Linking Parameters\b0  and \b Expressions\b0  (under Part 2, \b Layer Parameters\b0 , p. 132-137).
\par 
\par If you have closely spaced contours, you are probably best off using the \b Nearest\b0  method because it is fast and with closely spaced contours, interpolation provides little if any benefit.
\par 
\par If you want to define zones with constant values, use the \b Exact\b0  method.
\par 
\par If your have many data points (more than 20 to 50) and you wish to interpolate among point data, change the layer to a \b Data\b0  layer and use interpolation.  Interpolation on a data layer can be considerably faster than interpolation among the same data on an information layer.  There is a free spreadsheet PIE that you can use to import point data.  It is automatically installed with Argus ONE.  Check the Argus ONE Help for information on how to use it.
\par 
\par If you have widely spaced contours, you may benefit from interpolating among those contours.  There are several different interpolation methods available.  Some interpolation methods work better than others with specific data sets. 
\par 
\par It is a good idea to \cf2\strike visualize your data on the grid\cf3\strike0\{linkID=10000\}\cf0  to ensure that aquifer properties have been assigned the way you wish them to be assigned.
\par 
\par If you don't choose an appropriate method for interpreting you data, you may be unhappy with the results.  Either the values assigned to cells may not be what you intend or Argus may be slower than it needs to be or both.  Argus ONE gives you a lot of tools to work with when assigning aquifer properties.  It is up to you to choose the \b right\b0  tool for your problem.  If you don't like the results, it is probably because you haven't chosen the right tool.  Remember, "It's a poor workman who blames his tools."
\par 
\par See also:
\par \cf2\b\strike Q. How can I get Argus ONE to export the model input files more quickly?\cf3\strike0\{linkID=11700\}\cf0\b0 
\par \cf2\b\strike\f3 About Interpolation and Data Interpretation and Presentation\cf3\strike0\{linkID=11\f4 33\f3 0\}
\par \cf2\strike Tips\cf3\strike0\{linkID=11250\}
\par \cf2\strike Frequently Asked Questions\cf3\strike0\{linkID=11370\}
\par \cf2\strike Interpretation methods in Argus ONE.\cf3\strike0\{linkID=11230\}\cf0\f0\fs20 
\par 
\par }
20
Scribble20
OK Button (Project Information)
Ok


nonspatial:000020
Writing



FALSE
6
{\rtf1\ansi\deff0\deflang1033{\fonttbl{\f0\fswiss Arial;}{\f1\froman Times New Roman;}}
{\colortbl ;\red0\green0\blue255;}
\viewkind4\uc1\pard\cf1\b\f0\fs32 OK Button (Project Information)
\par \cf0\b0\fs20 
\par \f1\fs24 Click the \b OK\b0  button to accept all changes in the "Project Info" dialog box and close it.  If any warning messages appear, read and heed them.\f0\fs20 
\par }
30
Scribble30
Cancel Button (Project Information)
Cancel


nonspatial:000030
Writing



FALSE
6
{\rtf1\ansi\deff0\deflang1033{\fonttbl{\f0\fswiss Arial;}{\f1\froman Times New Roman;}}
{\colortbl ;\red0\green0\blue255;}
\viewkind4\uc1\pard\cf1\b\f0\fs32 Cancel Button (Project Information)
\par \cf0\b0\fs20 
\par \f1\fs24 Clicking the \b Cancel\b0  button will cancel and changes in the "Project Info" dialog box and close it.  Do this if you do \b not\b0  want to save the changes in the dialog box.\f0\fs20 
\par }
40
Scribble40
About Tab
About Tab


nonspatial:000040
Writing



FALSE
6
{\rtf1\ansi\deff0\deflang1033{\fonttbl{\f0\fswiss Arial;}{\f1\froman Times New Roman;}}
{\colortbl ;\red0\green0\blue255;}
\viewkind4\uc1\pard\cf1\b\f0\fs32 About Tab
\par \cf0\b0\fs20 
\par \f1\fs24 This tab displays information about the PIE, such as its author, bibliographic citations of the documentation, and contact information.  The contact information is in the form of hypertext links.  You can click on the e-mail address to start your e-mail program and send a message to the author of the PIE.  You can click on the web page URL to start a web browser and transfer immediately to the web page from which you can download the GUI.  You can copy the bibliographic information by selecting it and pressing Ctrl-C.\f0\fs20 
\par }
50
Scribble50
Project Tab
Project; Basic


nonspatial:000050
Writing



FALSE
32
{\rtf1\ansi\ansicpg1252\deff0\deflang1033{\fonttbl{\f0\fswiss Arial;}{\f1\froman Times-Roman;}{\f2\froman Times New Roman;}{\f3\fnil\fcharset2 Symbol;}}
{\colortbl ;\red0\green0\blue255;\red0\green128\blue0;\red128\green0\blue0;}
\viewkind4\uc1\pard\cf1\b\f0\fs32 Project Tab
\par \cf0\b0\f1\fs24 
\par \f2 Information related to the description of the simulation is entered in the \b Project\b0  tab.  The \b Project Name\b0 , \b Date\b0 ,\b  \b0 and \b Description\b0\i  \i0 are editable fields used to describe the simulation.  This information is not exported to the files used by MODFLOW-96; it is stored in an Argus-ONE file and is provided as a convenience for archiving model information.
\par 
\par MODFLOW Package: Basic
\par MODFLOW-96 input values: \i Heading\i0  (Data sets 1 and 2)
\par MODFLOW-2000 input values: \i Text\i0  (Data set 0)
\par 
\par The two editable fields at the middle of the Project dialog box entitled \b Project title\b0\i  \i0 are exported to the ASCII files read by MODFLOW-96.
\par 
\par This tab also contains radio-buttons and checkboxes for processes and programs:
\par \pard{\pntext\f3\'B7\tab}{\*\pn\pnlvlblt\pnf3\pnindent200{\pntxtb\'B7}}\fi-200\li200\cf2\strike MODFLOW-96 radio button\cf3\strike0\{linkID=80\}\cf0 
\par \cf2\strike{\pntext\f3\'B7\tab}MODFLOW-2000 radio button\cf3\strike0\{linkID=80\}\cf0 
\par \cf2\strike{\pntext\f3\'B7\tab}Observation Process checkbox\cf3\strike0\{linkID=90\}\cf0 
\par \cf2\strike{\pntext\f3\'B7\tab}Sensitivity analysis checkbox\cf3\strike0\{linkID=100\}\cf0 
\par \cf2\strike{\pntext\f3\'B7\tab}Parameter estimation checkbox\cf3\strike0\{linkID=110\}\cf0 
\par \cf2\strike{\pntext\f3\'B7\tab}RESAN-2000 checkbox\cf3\strike0\{linkID=120\}\cf0 
\par \cf2\strike{\pntext\f3\'B7\tab}YCINT-2000 checkbox\cf3\strike0\{linkID=130\}\cf0 
\par \cf2\strike{\pntext\f3\'B7\tab}BEALE-2000 checkbox\cf3\strike0\{linkID=140\}\cf0 
\par \pard{\pntext\f3\'B7\tab}{\*\pn\pnlvlblt\pnf3\pnindent200{\pntxtb\'B7}}\fi-180\li180\cf2\strike MOC3D or GWT checkbox\cf3\strike0\{linkID=150\}\cf0 
\par \cf2\strike{\pntext\f3\'B7\tab}MODPATH checkbox\cf3\strike0\{linkID=160\}\cf0 
\par \pard{\pntext\f3\'B7\tab}{\*\pn\pnlvlblt\pnf3\pnindent200{\pntxtb\'B7}}\fi-200\li200\cf2\strike ZONEBUDGET checkbox\cf3\strike0\{linkID=170\}\cf0 
\par \pard{\pntext\f3\'B7\tab}{\*\pn\pnlvlblt\pnf3\pnindent0{\pntxtb\'B7}}\fi-180\li180\cf2\strike MT3DMS checkbox\cf3\strike0\{linkID=180\}\cf0 
\par \cf2\strike{\pntext\f3\'B7\tab}SEAWAT checkbox\cf3\strike0\{linkID=182\}\cf0 
\par \cf2\strike{\pntext\f3\'B7\tab}GWM checkbox\cf3\strike0\{linkID=184\}\cf0 
\par \pard\tx200 
\par \pard A series of radio buttons allows you to set the \cf2\strike Mode\cf3\strike0\{linkID=190\}\cf0  for MODFLOW-2000.  Setting the mode changes which options are selected and the values of \cf2\strike ISENALL\cf3\strike0\{linkID=1890\}\cf0  and \cf2\strike MAX-ITER\cf3\strike0\{linkID=1990\}\cf0 .
\par 
\par You also set the \cf2\strike length\cf3\strike0\{linkID=60\}\cf0  and \cf2\strike time\cf3\strike0\{linkID=70\}\cf0  units for the model here.
\par }
60
Scribble60
Length Units (LENUNI) combobox
LENUNI; Length units


nonspatial:000060
Writing



FALSE
14
{\rtf1\ansi\ansicpg1252\deff0\deflang1033{\fonttbl{\f0\fswiss Arial;}{\f1\froman Times-Italic;}{\f2\froman Times New Roman;}{\f3\froman\fcharset0 Times New Roman;}{\f4\fnil\fcharset2 Symbol;}}
{\colortbl ;\red0\green0\blue255;\red0\green128\blue0;\red128\green0\blue0;\red0\green0\blue0;}
\viewkind4\uc1\pard\cf1\b\f0\fs32 Length Units (LENUNI) combobox
\par \cf0\b0\fs20 
\par \pard{\pntext\f4\'B7\tab}{\*\pn\pnlvlblt\pnf4\pnindent0{\pntxtb\'B7}}\fi-200\li200\tx200\cf2\strike\f1\fs24 Project Tab\cf3\strike0\{linkID=50\}\cf0\strike 
\par \pard\i\strike0 
\par \pard{\pntext\f4\'B7\tab}{\*\pn\pnlvlblt\pnf4\pnindent200{\pntxtb\'B7}}\fi-200\li200\i0\f2 MODFLOW-2000  Package: Discretization
\par {\pntext\f4\'B7\tab}MODFLOW-2000 input values: \i LENUNI\i0 
\par \f3{\pntext\f4\'B7\tab}MT3DMS \f2 Package: Basic
\par \pard{\pntext\f4\'B7\tab}{\*\pn\pnlvlblt\pnf4\pnindent0{\pntxtb\'B7}}\fi-200\li200\f3 MT3DMS input values: \i LUNIT \i0 (Data set A4)
\par \pard\f2 
\par \pard\tx360\cf4\lang1024\b\i LENUNI\b0\i0  - indicates the length unit of model data, which must be consistent for all data values that involve length. For example, if feet is the chosen length unit, grid spacing, head, hydraulic conductivity, water volumes, etc., must all be expressed using feet for their length units. Note that the program will still run even if  "undefined" length units are specified because the fundamental equations used in MODFLOW do not require that the length unit be identified.  But be sure to use consistent units for all input data even when \i LENUNI\i0  indicates an undefined length unit.
\par \pard\cf0\lang1033 
\par }
70
Scribble70
Time Units
Basic; ITMUNI; time units


nonspatial:000070
Writing



FALSE
13
{\rtf1\ansi\ansicpg1252\deff0\deflang1033{\fonttbl{\f0\fswiss Arial;}{\f1\froman Times New Roman;}{\f2\froman\fcharset0 Times New Roman;}{\f3\froman Times-Roman;}{\f4\fnil\fcharset0 Times New Roman;}{\f5\fnil\fcharset2 Symbol;}}
{\colortbl ;\red0\green0\blue255;\red0\green128\blue0;\red128\green0\blue0;}
\viewkind4\uc1\pard\cf1\b\f0\fs32 Time Units
\par \cf0\b0\fs20 
\par \pard{\pntext\f5\'B7\tab}{\*\pn\pnlvlblt\pnf5\pnindent200{\pntxtb\'B7}}\fi-200\li200\cf2\strike\f1\fs24 Project Tab\cf3\strike0\{linkID=50\}\cf0 
\par \pard 
\par \pard{\pntext\f5\'B7\tab}{\*\pn\pnlvlblt\pnf5\pnindent200{\pntxtb\'B7}}\fi-200\li200 MODFLOW Package: Basic
\par {\pntext\f5\'B7\tab}MODFLOW input values:  \i ITMUNI\i0  (Data set 3)
\par \f2{\pntext\f5\'B7\tab}MT3DMS \f1 Package: Basic
\par \f2{\pntext\f5\'B7\tab}MT3DMS input values: \i TUNIT\i0  (Data set A4)\f1 
\par \pard\f3 
\par \b\i\f4 Time Units\b0  \i0 is the flag to identify the time units used in the simulation.  A combobox provides options for undefined time units, seconds, minutes, hours, days, and years.\f0\fs20 
\par }
80
Scribble80
MODFLOW-96 and MODFLOW-2000 radiobuttons
Interbed Storage; Transient Leakage; Modflow-96; Modflow-2000


nonspatial:000080
Writing



FALSE
8
{\rtf1\ansi\deff0\deflang1033{\fonttbl{\f0\fswiss Arial;}{\f1\froman Times New Roman;}{\f2\fnil\fcharset2 Symbol;}}
{\colortbl ;\red0\green0\blue255;\red0\green128\blue0;\red128\green0\blue0;}
\viewkind4\uc1\pard\cf1\b\f0\fs32 MODFLOW-96 and MODFLOW-2000 radiobuttons
\par \cf0\b0\f1\fs24 
\par \pard{\pntext\f2\'B7\tab}{\*\pn\pnlvlblt\pnf2\pnindent200{\pntxtb\'B7}}\fi-200\li200\cf2\strike Project Tab\cf3\strike0\{linkID=50\}\cf0 
\par \pard 
\par The MODFLOW GUI supports both MODFLOW-96 and MODFLOW-2000.  At the time this was written, some MODFLOW packages such as the Interbed Storage and Transient Leakage packages could not work with MODFLOW-2000.  However, MOFDLOW-2000 has built in methods for sensitivity analysis and parameter estimation not present in MODFLOW-96.  The program you choose will determine which options will be available in your model.  You will be warned if you attempt to select options that are incompatible.
\par }
90
Scribble90
Observation Process checkbox
Observation Process; Observation; OBS


nonspatial:000090
Writing



FALSE
28
{\rtf1\ansi\ansicpg1252\deff0\deflang1033{\fonttbl{\f0\fswiss Arial;}{\f1\froman Times New Roman;}{\f2\fnil\fcharset0 Times New Roman;}{\f3\froman Times-Roman;}{\f4\fnil\fcharset2 Symbol;}}
{\colortbl ;\red0\green0\blue255;\red0\green128\blue0;\red128\green0\blue0;}
\viewkind4\uc1\pard\cf1\b\f0\fs32 Observation Process checkbox
\par \cf0\b0\f1\fs24 
\par \pard{\pntext\f4\'B7\tab}{\*\pn\pnlvlblt\pnf4\pnindent200{\pntxtb\'B7}}\fi-200\li200 On \cf2\strike Project Tab\cf3\strike0\{linkID=50\}\cf0\f0\fs20 
\par \pard\fi-160\li160\tx160 
\par \pard{\pntext\f4\'B7\tab}{\*\pn\pnlvlblt\pnf4\pnindent200{\pntxtb\'B7}}\fi-200\li200\f1\fs24 MODFLOW Packages: Observation, name file
\par {\pntext\f4\'B7\tab}MODFLOW input values: "\f2 O\f1 BS" is included in name file
\par \pard\f3 
\par \f1 If the \b Observation Process\b0  checkbox is checked,  the observation process in MODFLOW 2000 will be activated. 
\par 
\par \b Observation Process\b0 
\par \b Q\b0 . What is it?  
\par \b A\b0 . It is a method of comparing measured values of head, flux, or advective transport to modeled values.
\par 
\par \b Q\b0 . What is it for?  
\par \b A\b0 . It is a method for the modeler to quantify how well a model matches observed data.
\par 
\par \b Q\b0 . Is it objective?  
\par \b A\b0 . Not entirely.  Some observations may be more reliable than others and the modeler must quantify how reliable each observation is.  This introduces some subjectivity into the process.  In addition, the modeler must subjectively define how to weight observations in different units such as measurements of head and flux and how to weight observations that may have correlated errors such as multiple head observations in a single well.
\par 
\par \b Q\b0 . If I have several rivers, drains or other boundary conditions in the same cell, can I compare the flux from just one of those boundaries to an observed value?  
\par \b A\b0 . No, this is not currently supported in the MODFLOW GUI. 
\par 
\par See also:
\par \cf2\strike Observations Tab\cf3\strike0\{linkID=1620\}\cf0 
\par \f0\fs20 
\par }
100
Scribble100
Sensitivity analysis checkbox
Sensitivity


nonspatial:000100
Writing



FALSE
21
{\rtf1\ansi\deff0\deflang1033{\fonttbl{\f0\fswiss Arial;}{\f1\froman Times New Roman;}{\f2\fnil\fcharset2 Symbol;}}
{\colortbl ;\red0\green0\blue255;\red0\green128\blue0;\red128\green0\blue0;\red0\green0\blue0;}
\viewkind4\uc1\pard\cf1\b\f0\fs32 Sensitivity analysis checkbox
\par \cf0\b0\fs20 
\par \pard{\pntext\f2\'B7\tab}{\*\pn\pnlvlblt\pnf2\pnindent200{\pntxtb\'B7}}\fi-200\li200\f1\fs24 On \cf2\strike Project Tab\cf3\strike0\{linkID=50\}\cf4 
\par \pard\fi-160\li160\tx160 
\par \pard{\pntext\f2\'B7\tab}{\*\pn\pnlvlblt\pnf2\pnindent200{\pntxtb\'B7}}\fi-200\li200\cf0 MODFLOW Packages: Sensitivity, Name file
\par {\pntext\f2\'B7\tab}MODFLOW input values: none
\par \pard\cf4 
\par \cf0 If this check box is checked, the sensitivity analysis process in MODFLOW 2000 is activated.  See the section of the MODFLOW 2000 documentation entitled "SENSITIVITY PROCESS" for more information (\cf2\strike Hill and others, 2000\cf3\strike0\{linkTarget=Hill2000\}\cf0 ).\fs22 
\par \fs24 
\par \b Sensitivity Process\b0 
\par \b Q\b0 . What is it?  
\par \b A\b0 . It is a method of quantifying how much the change in individual \cf2\strike parameters\cf3\strike0\{linkID=1230\}\cf0  affects model results or the calibration of the model.
\par 
\par \b Q\b0 . What is it for?  
\par \b A\b0 . It helps the modeler understand the importance of individual \cf2\strike parameters\cf3\strike0\{linkID=1230\}\cf0  on the model results.
\par \f0\fs20 
\par \f1\fs24 See also:
\par \cf2\strike Sensitivity tab\cf3\strike0\{linkID=1870\}\cf0\f0\fs20 
\par }
110
Scribble110
Parameter estimation checkbox
Parameter estimation checkbox; PES


nonspatial:000110
Writing



FALSE
14
{\rtf1\ansi\deff0\deflang1033{\fonttbl{\f0\fswiss Arial;}{\f1\froman Times New Roman;}{\f2\fnil\fcharset2 Symbol;}}
{\colortbl ;\red0\green0\blue255;\red0\green128\blue0;\red128\green0\blue0;\red0\green0\blue0;}
\viewkind4\uc1\pard\cf1\b\f0\fs32 Parameter estimation checkbox
\par \cf0\b0\fs20 
\par \pard{\pntext\f2\'B7\tab}{\*\pn\pnlvlblt\pnf2\pnindent200{\pntxtb\'B7}}\fi-200\li200\f1\fs24 On \cf2\strike Project Tab\cf3\strike0\{linkID=50\}\cf4 
\par \pard\fi-160\li160\tx160 
\par \pard{\pntext\f2\'B7\tab}{\*\pn\pnlvlblt\pnf2\pnindent200{\pntxtb\'B7}}\fi-200\li200\cf0 MODFLOW Packages: Name file
\par {\pntext\f2\'B7\tab}MODFLOW input values: file type with type "\i PES\i0 "
\par \pard 
\par If this checkbox is checked, parameter estimation is activated.  "Parameter estimation" is a method of automatically calibrating a model.  
\par 
\par See also: 
\par \cf2\strike Limitations of Sensitivity Analysis and Parameter Estimation\cf3\strike0\{linkID=11010\}\cf0 
\par }
120
Scribble120
RESAN-2000 checkbox



nonspatial:000120
Writing



FALSE
12
{\rtf1\ansi\ansicpg1252\deff0\deflang1033{\fonttbl{\f0\fnil Arial;}{\f1\fnil Times New Roman;}{\f2\froman Times New Roman;}{\f3\fnil\fcharset0 Times New Roman;}{\f4\fmodern Courier;}{\f5\fnil\fcharset2 Symbol;}}
{\colortbl ;\red0\green0\blue255;\red0\green128\blue0;\red128\green0\blue0;\red0\green0\blue0;}
\viewkind4\uc1\pard\cf1\b\f0\fs32 RESAN-2000 checkbox\cf0\b0\f1\fs24 
\par 
\par \pard{\pntext\f5\'B7\tab}{\*\pn\pnlvlblt\pnf5\pnindent200{\pntxtb\'B7}}\fi-200\li200\f2 On \cf2\strike Project Tab\cf3\strike0\{linkID=50\}\cf4 
\par \pard\cf0\f3 
\par Resan-2000 is used "to test the weighted residuals for acceptable deviations from being independent (lacking any correlation) and normally distributed" and to "identify observations that are influential in the regression."
\par \f1 
\par See p. 85 of \cf2\strike Hill and others (2000)\cf3\strike0\{linkTarget=\f2 Hill2000\f1\}
\par 
\par \cf0 GW_Chart\f3  (which is distributed with the MODFLOW-GUI installer or from \cf4\f4\fs20\{html=<a href="\cf1\strike\f1\fs24 http://water.usgs.gov/nrp/gwsoftware/GW_Chart/GW_Chart.html\cf4\strike0\f4\fs20 " target=_blank>\cf1\f1\fs24 http://water.usgs.gov/nrp/gwsoftware/GW_Chart/GW_Chart.html\cf4\f4\fs20 </a>\}\cf0\f3\fs24 ) can be used to graph the results of RESAN-2000.\f1 
\par }
130
Scribble130
YCINT-2000 checkbox



nonspatial:000130
Writing



FALSE
49
{\rtf1\ansi\ansicpg1252\deff0\deflang1033{\fonttbl{\f0\fnil Arial;}{\f1\fnil Times New Roman;}{\f2\froman Times New Roman;}{\f3\fnil\fcharset0 Times New Roman;}{\f4\froman\fcharset0 Times New Roman;}{\f5\fnil\fcharset2 Symbol;}}
{\colortbl ;\red0\green0\blue255;\red0\green128\blue0;\red128\green0\blue0;\red0\green0\blue0;}
\viewkind4\uc1\pard\cf1\b\f0\fs32 YCINT-2000 checkbox\cf0\b0\f1\fs24 
\par 
\par \pard{\pntext\f5\'B7\tab}{\*\pn\pnlvlblt\pnf5\pnindent200{\pntxtb\'B7}}\fi-200\li200\f2 On \cf2\strike Project Tab\cf3\strike0\{linkID=50\}\cf4 
\par \pard\cf0\f3 
\par YCINT-2000 "can be used to calculate 95-percent linear confidence and prediction intervals on predicted values and and differences calculated using predicted values".
\par 
\par \f1 See p. 8\f3 7\f1  of \cf2\strike Hill and others (2000)\cf3\strike0\{linkTarget=\f2 Hill2000\f1\}
\par 
\par \cf0\f3 To use YCINT-2000 first generate a _y0 file using steps 1-5
\par 
\par 1. Make sure the appropriate parameter values are in the Sensitivity Process input file.  Often this requirest at the final calibrated parameter values be substituted in the the Sensitivity Process.  The easiest way to make the substitutions is to go to the \cf2\strike Sensitivity tab\cf3\strike0\{linkID=1870\}\cf0 , click the \cf2\strike Import button\cf3\strike0\{linkID=1960\}\cf0  and select the _b file produced by the calibrated model.  Often more parameters are active for calculating confidence and prediction intervals than for regresion.  \cf2\strike Prior-information\cf3\strike0\{linkID=2250\}\cf0  on some unestimated parameters may need to be defined. Prior information may need to have a different statistic values specified than those used for model calibration.  This occurs when the statistic used for calibration indicates more certainty in the prior value than can be justified given the available data.
\par 
\par 2. In the \cf2\strike Parameter estimation\cf3\strike0\{linkID=1970\}\cf0  process under "Occasionally modified input values", set \cf2\strike IYCFLG \cf3\strike0\{linkID=2040\}\cf0 to \f1 "create _yo file"\f3 . \cf2\strike IBEFLG\cf3\strike0\{linkID=2030\}\cf0  can be set to anything except \f1 "create _b2 file"\f3 . \cf2\strike MAX-ITER\cf3\strike0\{linkID=1990\}\cf0  can be set to 0.
\par 
\par 3. Because only the Sensitivity and Parameter estimation process input files have been changed, you only need to \cf2\strike export \cf3\strike0\{linkID=11060\}\cf0 those before running MODFLOW-2000.
\par 
\par 4. Run MODFLOW-2000.
\par 
\par 5.\f1  Once the _y0 file is created, it needs to be edited if differences and confidence and\f3  \f1 prediction intervals for differences are to be calculated. In this circumstance, the variable\f3  \f1 IDIF needs to be changed from 0 to 1; IDIF is read from item 4 of the _y0 file in free\f3  \f1 format.\f4\fs20 
\par \f3\fs24 
\par \f1 Next, generate an _y1 file using steps \f3 6\f1  through 1\f3 0\f1 .
\par 
\par \f3 6\f1 . If not done in step 1 to generate the _y0 file, substitute the final calibrated parameter values\f3  \f1 from the _b file into the Sensitivity Process input file.
\par 
\par \f3 7\f1 . In the \cf2\strike Parameter-Estimation\cf3\strike0\{linkID=1970\}\cf0  Process input file, \f3 set \cf2\strike IYCFLG \cf3\strike0\{linkID=2040\}\cf0 to \f1 "create _y\f3 1\f1  file"\f3 . \f1  to generate an _y1 file.\f3  \cf2\strike IBEFLG\cf3\strike0\{linkID=2030\}\cf0  can be set to anything except \f1 "create _b2 file"\f3 . Set \cf2\strike MAX-ITER\cf3\strike0\{linkID=1990\}\cf0  \f1 = 0 so the final calibrated\f3  \f1 parameter values listed in the Sensitivity Process input file remain unchanged.
\par 
\par \f3 8\f1 . \f3 In the layers for the observation process, set \cf2\strike Is_Prediction[i]\cf3\strike0\{linkID=6420\}\cf0  to true for all observations.\f1 
\par 
\par \f3 9\f1 . Change input files for flow-process packages to represent the stresses, boundary conditions,\f3  \f1 and so on of the system for which predictions are being made.
\par 
\par 10. Execute MODFLOW-2000.
\par 
\par To have YCINT calculate confidence or prediction intervals on differences (done when IDIF is set to 1 in the _y0 file, as described in step \f3 5\f1  above), an _y2 file is needed and can be generated using steps 1\f3 1\f1  through 1\f3 5\f1 .
\par 
\par 1\f3 1\f1 . Use the same Sensitivity Process input file used to generate the _y1 file.
\par 
\par 1\f3 2\f1 . Use the same observation package files (for example, HOB, DROB, and so forth) used to generate the _y1 file.
\par 
\par 1\f3 3\f1 . In the Parameter-Estimation Process input file, set \cf2\strike\f3 IYCFLG \cf3\strike0\{linkID=2040\}\cf0 to \f1 "create _y\f3 2\f1  file"\f3 .\f1  to generate an _y2 file. \f3 Set \cf2\strike MAX-ITER\cf3\strike0\{linkID=1990\}\cf0  \f1 = 0 so the final calibrated parameter values in the Sensitivity Process input file remain unchanged.
\par 
\par 1\f3 4\f1 . Modify the flow-process package files to define the base conditions.
\par 
\par 1\f3 5\f1 . Execute MODFLOW-2000.
\par 
\par 1\f3 6\f1 . Finally, execute YCINT.
\par 
\par }
140
Scribble140
BEALE-2000 checkbox



nonspatial:000140
Writing



FALSE
31
{\rtf1\ansi\ansicpg1252\deff0\deflang1033{\fonttbl{\f0\fnil Arial;}{\f1\fnil Times New Roman;}{\f2\froman Times New Roman;}{\f3\fnil\fcharset0 Times New Roman;}{\f4\fnil\fcharset2 Symbol;}}
{\colortbl ;\red0\green0\blue255;\red0\green128\blue0;\red128\green0\blue0;\red0\green0\blue0;}
\viewkind4\uc1\pard\cf1\b\f0\fs32 BEALE-2000 checkbox\cf0\b0\f1\fs24 
\par 
\par \pard{\pntext\f4\'B7\tab}{\*\pn\pnlvlblt\pnf4\pnindent200{\pntxtb\'B7}}\fi-200\li200\f2 On \cf2\strike Project Tab\cf3\strike0\{linkID=50\}\cf4 
\par \pard\cf0\f1 
\par See p. \f3 92 \f1 f \cf2\strike Hill and others (2000)\cf3\strike0\{linkTarget=\f2 Hill2000\f1\}
\par \cf0 
\par The linear intervals produced by YCINT-2000 can accurately reflect the uncertainty of\f3  \f1 the simulated values only if the model is sufficiently linear\f3 .   \f1 Model nonlinearity can be tested using the modified\f3  \f1 Beale's measure; the\f3  \f1 modified Beale's measure should be reported for all calibrated models. Groundwater models are\f3  \f1 nearly always nonlinear with respect to estimated parameter values. Although the modified Gauss-Newton optimization method and many of the statistical\f3  \f1 methods calculated by MODFLOW-2000 are useful even for\f3  \f1 problems which are quite nonlinear, more stringent requirements on linearity are needed for the\f3  \f1 linear confidence and prediction intervals produced by \cf2\strike YCINT-2000\cf3\strike0\{linkID=130\}\cf0  to\f3  \f1 adequately represent uncertainty. 
\par 
\par The modified Beale's measure is calculated using two output files produced by\f3  \f1 MODFLOW-2000 and the post-processing program BEALE-2000. The two files are the _b1 and\f3  \f1 _b2 files. If \f3 prediction conditions are different from calibration conditions,\f1  the _b1 file needs to be produced by the same run of\f3  \f1 MODFLOW-2000 used to \cf2\strike produce the _y0 file\cf3\strike0\{linkID=130\}\cf0 . File _b2 needs to be produced by a separate run\f3  \f1 of MODFLOW-2000. 
\par 
\par The \cf2\strike Root Name of Data and Output Files\cf3\strike0\{linkID=1370\}\cf0\f3  \f1 must be the same for the runs that produce\f3  \f1 the _b1 and _b2 files.
\par 
\par To use BEALE-2000, first generate an _b1 file as follows:
\par 1. In the Parameter-Estimation Process input file, set \cf2\strike IBEFLG \cf3\strike0\{linkID=2030\}\cf0\f3 to \f1 "create _b1 file".
\par 
\par 2. Substitute the final calibrated parameter values from the _b file into the Sensitivity Process\f3  \f1 input file.\f3  The easiest way to make the substitutions is to go to the \cf2\strike Sensitivity tab\cf3\strike0\{linkID=1870\}\cf0 , click the \cf2\strike Import button\cf3\strike0\{linkID=1960\}\cf0  and select the _b file produced by the calibrated model. 
\par \f1 
\par 3. Execute MODFLOW-2000. This run will generate an _b1 file.
\par 
\par Next, generate an _b2 file as follows:
\par 
\par 4. In the Parameter-Estimation Process input file, set \cf2\strike IBEFLG \cf3\strike0\{linkID=2030\}\cf0\f3 to \f1 "create _b\f3 2\f1  file".
\par 
\par 5. Execute MODFLOW-2000. In this run, the _b1 file produced in step 3 is read and an _b2\f3  \f1 file is generated.
\par 
\par 6. Finally, execute BEALEP. Output is to a file with extension #be.
\par The modified Beale's measure is printed near the bottom of the file along with critical\f3  \f1 values. This information can be used to determine whether the calibrated model is roughly linear,\f3  \f1 intermediate, or nonlinear, with respect to the observations used for model calibration. The rest of\f3  \f1 the information in the #be file can be used to detect which observations and parameters contribute\f3  \f1 most to the nonlinearity.
\par 
\par }
150
Scribble150
MOC3D or GWT checkbox
MOC3D


nonspatial:000150
Writing



FALSE
10
{\rtf1\ansi\ansicpg1252\deff0\deflang1033{\fonttbl{\f0\fswiss Arial;}{\f1\fnil\fcharset0 Times New Roman;}{\f2\froman Times New Roman;}{\f3\fnil\fcharset2 Symbol;}}
{\colortbl ;\red0\green0\blue255;\red0\green128\blue0;\red128\green0\blue0;}
\viewkind4\uc1\pard\cf1\b\f0\fs32 MOC3D or GWT checkbox
\par \cf0\b0\fs20 
\par \pard{\pntext\f3\'B7\tab}{\*\pn\pnlvlblt\pnf3\pnindent200{\pntxtb\'B7}}\fi-200\li200\f1\fs24 On \cf2\strike Project Tab\cf3\strike0\{linkID=50\}\cf0 
\par \pard 
\par Selecting the MOC3D or GWT check box will cause the tab associated with the MOC3D or GWT solute transport code to appear.  Data required for MOC3D or GWT can be entered in these tabs.\fs20 
\par \fs24 
\par MOC3D is used with MODFLOW-96.  GWT is the equivalent of MOC3D for MODFLOW-2000.\f2 
\par }
160
Scribble160
MODPATH Checkbox
MODPATH


nonspatial:000160
Writing



FALSE
14